

        *** GPGPU-Sim Simulator Version 3.2.2  [build 0] ***


GPGPU-Sim PTX: simulation mode 0 (can change with PTX_SIM_MODE_FUNC environment variable:
               1=functional simulation only, 0=detailed performance simulator)
GPGPU-Sim: Configuration options:

-network_mode                           1 # Interconnection network mode
-inter_config_file   config_fermi_islip.icnt # Interconnection network config file
-gpgpu_ptx_use_cuobjdump                    1 # Use cuobjdump to extract ptx and sass from binaries
-gpgpu_experimental_lib_support                    0 # Try to extract code from cuda libraries [Broken because of unknown cudaGetExportTable]
-gpgpu_ptx_convert_to_ptxplus                    0 # Convert SASS (native ISA) to ptxplus and run ptxplus
-gpgpu_ptx_force_max_capability                   20 # Force maximum compute capability
-gpgpu_ptx_inst_debug_to_file                    0 # Dump executed instructions' debug information to file
-gpgpu_ptx_inst_debug_file       inst_debug.txt # Executed instructions' debug output file
-gpgpu_ptx_inst_debug_thread_uid                    1 # Thread UID for executed instructions' debug output
-gpgpu_simd_model                       1 # 1 = post-dominator
-gpgpu_shader_core_pipeline              1536:32 # shader core pipeline config, i.e., {<nthread>:<warpsize>}
-gpgpu_tex_cache:l1  4:128:24,L:R:m:N:L,F:128:4,128:2 # per-shader L1 texture cache  (READ-ONLY) config  {<nsets>:<bsize>:<assoc>,<rep>:<wr>:<alloc>:<wr_alloc>,<mshr>:<N>:<merge>,<mq>:<rf>}
-gpgpu_const_cache:l1 64:64:2,L:R:f:N:L,A:2:32,4 # per-shader L1 constant memory cache  (READ-ONLY) config  {<nsets>:<bsize>:<assoc>,<rep>:<wr>:<alloc>:<wr_alloc>,<mshr>:<N>:<merge>,<mq>} 
-gpgpu_cache:il1     4:128:4,L:R:f:N:L,A:2:32,4 # shader L1 instruction cache config  {<nsets>:<bsize>:<assoc>,<rep>:<wr>:<alloc>:<wr_alloc>,<mshr>:<N>:<merge>,<mq>} 
-gpgpu_cache:dl1     32:128:4,L:L:m:N:H,A:32:8,8 # per-shader L1 data cache config  {<nsets>:<bsize>:<assoc>,<rep>:<wr>:<alloc>:<wr_alloc>,<mshr>:<N>:<merge>,<mq> | none}
-gpgpu_cache:dl1PrefL1                 none # per-shader L1 data cache config  {<nsets>:<bsize>:<assoc>,<rep>:<wr>:<alloc>:<wr_alloc>,<mshr>:<N>:<merge>,<mq> | none}
-gpgpu_cache:dl1PreShared                 none # per-shader L1 data cache config  {<nsets>:<bsize>:<assoc>,<rep>:<wr>:<alloc>:<wr_alloc>,<mshr>:<N>:<merge>,<mq> | none}
-gmem_skip_L1D                          0 # global memory access skip L1D cache (implements -Xptxas -dlcm=cg, default=no skip)
-gpgpu_perfect_mem                      0 # enable perfect memory mode (no cache miss)
-n_regfile_gating_group                    4 # group of lanes that should be read/written together)
-gpgpu_clock_gated_reg_file                    0 # enable clock gated reg file for power calculations
-gpgpu_clock_gated_lanes                    0 # enable clock gated lanes for power calculations
-gpgpu_shader_registers                32768 # Number of registers per shader core. Limits number of concurrent CTAs. (default 8192)
-gpgpu_shader_cta                       8 # Maximum number of concurrent CTAs in shader (default 8)
-gpgpu_num_cta_barriers                   16 # Maximum number of named barriers per CTA (default 16)
-gpgpu_n_clusters                      15 # number of processing clusters
-gpgpu_n_cores_per_cluster                    1 # number of simd cores per cluster
-gpgpu_n_cluster_ejection_buffer_size                    8 # number of packets in ejection buffer
-gpgpu_n_ldst_response_buffer_size                    2 # number of response packets in ld/st unit ejection buffer
-gpgpu_shmem_size                   16384 # Size of shared memory per shader core (default 16kB)
-gpgpu_shmem_size                   49152 # Size of shared memory per shader core (default 16kB)
-gpgpu_shmem_size_PrefL1                16384 # Size of shared memory per shader core (default 16kB)
-gpgpu_shmem_size_PrefShared                16384 # Size of shared memory per shader core (default 16kB)
-gpgpu_shmem_num_banks                   32 # Number of banks in the shared memory in each shader core (default 16)
-gpgpu_shmem_limited_broadcast                    0 # Limit shared memory to do one broadcast per cycle (default on)
-gpgpu_shmem_warp_parts                    1 # Number of portions a warp is divided into for shared memory bank conflict check 
-gpgpu_warpdistro_shader                   -1 # Specify which shader core to collect the warp size distribution from
-gpgpu_warp_issue_shader                    0 # Specify which shader core to collect the warp issue distribution from
-gpgpu_local_mem_map                    1 # Mapping from local memory space address to simulated GPU physical address space (default = enabled)
-gpgpu_num_reg_banks                   16 # Number of register banks (default = 8)
-gpgpu_reg_bank_use_warp_id                    0 # Use warp ID in mapping registers to banks (default = off)
-gpgpu_operand_collector_num_units_sp                    6 # number of collector units (default = 4)
-gpgpu_operand_collector_num_units_sfu                    8 # number of collector units (default = 4)
-gpgpu_operand_collector_num_units_mem                    2 # number of collector units (default = 2)
-gpgpu_operand_collector_num_units_gen                    0 # number of collector units (default = 0)
-gpgpu_operand_collector_num_in_ports_sp                    2 # number of collector unit in ports (default = 1)
-gpgpu_operand_collector_num_in_ports_sfu                    1 # number of collector unit in ports (default = 1)
-gpgpu_operand_collector_num_in_ports_mem                    1 # number of collector unit in ports (default = 1)
-gpgpu_operand_collector_num_in_ports_gen                    0 # number of collector unit in ports (default = 0)
-gpgpu_operand_collector_num_out_ports_sp                    2 # number of collector unit in ports (default = 1)
-gpgpu_operand_collector_num_out_ports_sfu                    1 # number of collector unit in ports (default = 1)
-gpgpu_operand_collector_num_out_ports_mem                    1 # number of collector unit in ports (default = 1)
-gpgpu_operand_collector_num_out_ports_gen                    0 # number of collector unit in ports (default = 0)
-gpgpu_coalesce_arch                   13 # Coalescing arch (default = 13, anything else is off for now)
-gpgpu_num_sched_per_core                    2 # Number of warp schedulers per core
-gpgpu_max_insn_issue_per_warp                    1 # Max number of instructions that can be issued per warp in one cycle by scheduler
-gpgpu_simt_core_sim_order                    1 # Select the simulation order of cores in a cluster (0=Fix, 1=Round-Robin)
-gpgpu_pipeline_widths        2,1,1,2,1,1,2 # Pipeline widths ID_OC_SP,ID_OC_SFU,ID_OC_MEM,OC_EX_SP,OC_EX_SFU,OC_EX_MEM,EX_WB
-gpgpu_num_sp_units                     2 # Number of SP units (default=1)
-gpgpu_num_sfu_units                    1 # Number of SF units (default=1)
-gpgpu_num_mem_units                    1 # Number if ldst units (default=1) WARNING: not hooked up to anything
-gpgpu_scheduler                      gto # Scheduler configuration: < lrr | gto | two_level_active > If two_level_active:<num_active_warps>:<inner_prioritization>:<outer_prioritization>For complete list of prioritization values see shader.h enum scheduler_prioritization_typeDefault: gto
-gpgpu_dram_scheduler                    1 # 0 = fifo, 1 = FR-FCFS (defaul)
-gpgpu_dram_partition_queues              8:8:8:8 # i2$:$2d:d2$:$2i
-l2_ideal                               0 # Use a ideal L2 cache that always hit
-gpgpu_cache:dl2     64:128:8,L:B:m:W:L,A:32:4,4:0,32 # unified banked L2 data cache config  {<nsets>:<bsize>:<assoc>,<rep>:<wr>:<alloc>:<wr_alloc>,<mshr>:<N>:<merge>,<mq>}
-gpgpu_cache:dl2_texture_only                    0 # L2 cache used for texture only
-gpgpu_n_mem                            6 # number of memory modules (e.g. memory controllers) in gpu
-gpgpu_n_sub_partition_per_mchannel                    2 # number of memory subpartition in each memory module
-gpgpu_n_mem_per_ctrlr                    2 # number of memory chips per memory controller
-gpgpu_memlatency_stat                   14 # track and display latency statistics 0x2 enables MC, 0x4 enables queue logs
-gpgpu_frfcfs_dram_sched_queue_size                   16 # 0 = unlimited (default); # entries per chip
-gpgpu_dram_return_queue_size                  116 # 0 = unlimited (default); # entries per chip
-gpgpu_dram_buswidth                    4 # default = 4 bytes (8 bytes per cycle at DDR)
-gpgpu_dram_burst_length                    8 # Burst length of each DRAM request (default = 4 data bus cycle)
-dram_data_command_freq_ratio                    4 # Frequency ratio between DRAM data bus and command bus (default = 2 times, i.e. DDR)
-gpgpu_dram_timing_opt nbk=16:CCD=2:RRD=6:RCD=12:RAS=28:RP=12:RC=40: CL=12:WL=4:CDLR=5:WR=12:nbkgrp=4:CCDL=3:RTPL=2 # DRAM timing parameters = {nbk:tCCD:tRRD:tRCD:tRAS:tRP:tRC:CL:WL:tCDLR:tWR:nbkgrp:tCCDL:tRTPL}
-rop_latency                          120 # ROP queue latency (default 85)
-dram_latency                         100 # DRAM latency (default 30)
-gpgpu_mem_addr_mapping dramid@8;00000000.00000000.00000000.00000000.0000RRRR.RRRRRRRR.BBBCCCCB.CCSSSSSS # mapping memory address to dram model {dramid@<start bit>;<memory address map>}
-gpgpu_mem_addr_test                    0 # run sweep test to check address mapping for aliased address
-gpgpu_mem_address_mask                    1 # 0 = old addressing mask, 1 = new addressing mask, 2 = new add. mask + flipped bank sel and chip sel bits
-gpuwattch_xml_file  gpuwattch_gtx480.xml # GPUWattch XML file
-power_simulation_enabled                    1 # Turn on power simulator (1=On, 0=Off)
-power_per_cycle_dump                    0 # Dump detailed power output each cycle
-power_trace_enabled                    0 # produce a file for the power trace (1=On, 0=Off)
-power_trace_zlevel                     6 # Compression level of the power trace output log (0=no comp, 9=highest)
-steady_power_levels_enabled                    0 # produce a file for the steady power levels (1=On, 0=Off)
-steady_state_definition                  8:4 # allowed deviation:number of samples
-gpgpu_max_cycle                        0 # terminates gpu simulation early (0 = no limit)
-gpgpu_max_insn                         0 # terminates gpu simulation early (0 = no limit)
-gpgpu_max_cta                          0 # terminates gpu simulation early (0 = no limit)
-gpgpu_runtime_stat                   500 # display runtime statistics such as dram utilization {<freq>:<flag>}
-liveness_message_freq                    1 # Minimum number of seconds between simulation liveness messages (0 = always print)
-gpgpu_flush_l1_cache                    0 # Flush L1 cache at the end of each kernel call
-gpgpu_flush_l2_cache                    0 # Flush L2 cache at the end of each kernel call
-gpgpu_deadlock_detect                    1 # Stop the simulation at deadlock (1=on (default), 0=off)
-gpgpu_ptx_instruction_classification                    0 # if enabled will classify ptx instruction types per kernel (Max 255 kernels now)
-gpgpu_ptx_sim_mode                     0 # Select between Performance (default) or Functional simulation (1)
-gpgpu_clock_domains 700.0:700.0:700.0:924.0 # Clock Domain Frequencies in MhZ {<Core Clock>:<ICNT Clock>:<L2 Clock>:<DRAM Clock>}
-gpgpu_max_concurrent_kernel                    8 # maximum kernels that can run concurrently on GPU
-gpgpu_cflog_interval                    0 # Interval between each snapshot in control flow logger
-visualizer_enabled                     0 # Turn on visualizer output (1=On, 0=Off)
-visualizer_outputfile                 NULL # Specifies the output log file for visualizer
-visualizer_zlevel                      6 # Compression level of the visualizer output log (0=no comp, 9=highest)
-trace_enabled                          0 # Turn on traces
-trace_components                    none # comma seperated list of traces to enable. Complete list found in trace_streams.tup. Default none
-trace_sampling_core                    0 # The core which is printed using CORE_DPRINTF. Default 0
-trace_sampling_memory_partition                   -1 # The memory partition which is printed using MEMPART_DPRINTF. Default -1 (i.e. all)
-enable_ptx_file_line_stats                    1 # Turn on PTX source line statistic profiling. (1 = On)
-ptx_line_stats_filename gpgpu_inst_stats.txt # Output file for PTX source line statistics.
-save_embedded_ptx                      0 # saves ptx files embedded in binary as <n>.ptx
-keep                                   0 # keep intermediate files created by GPGPU-Sim when interfacing with external programs
-gpgpu_ptx_save_converted_ptxplus                    0 # Saved converted ptxplus to a file
-ptx_opcode_latency_int         4,13,4,5,145 # Opcode latencies for integers <ADD,MAX,MUL,MAD,DIV>Default 1,1,19,25,145
-ptx_opcode_latency_fp          4,13,4,5,39 # Opcode latencies for single precision floating points <ADD,MAX,MUL,MAD,DIV>Default 1,1,1,1,30
-ptx_opcode_latency_dp         8,19,8,8,330 # Opcode latencies for double precision floating points <ADD,MAX,MUL,MAD,DIV>Default 8,8,8,8,335
-ptx_opcode_initiation_int            1,2,2,1,8 # Opcode initiation intervals for integers <ADD,MAX,MUL,MAD,DIV>Default 1,1,4,4,32
-ptx_opcode_initiation_fp            1,2,1,1,4 # Opcode initiation intervals for single precision floating points <ADD,MAX,MUL,MAD,DIV>Default 1,1,1,1,5
-ptx_opcode_initiation_dp         8,16,8,8,130 # Opcode initiation intervals for double precision floating points <ADD,MAX,MUL,MAD,DIV>Default 8,8,8,8,130
DRAM Timing Options:
nbk                                    16 # number of banks
CCD                                     2 # column to column delay
RRD                                     6 # minimal delay between activation of rows in different banks
RCD                                    12 # row to column delay
RAS                                    28 # time needed to activate row
RP                                     12 # time needed to precharge (deactivate) row
RC                                     40 # row cycle time
CDLR                                    5 # switching from write to read (changes tWTR)
WR                                     12 # last data-in to row precharge
CL                                     12 # CAS latency
WL                                      4 # Write latency
nbkgrp                                  4 # number of bank groups
CCDL                                    3 # column to column delay between accesses to different bank groups
RTPL                                    2 # read to precharge delay between accesses to different bank groups
Total number of memory sub partition = 12
addr_dec_mask[CHIP]  = 0000000000000000 	high:64 low:0
addr_dec_mask[BK]    = 000000000000e100 	high:16 low:8
addr_dec_mask[ROW]   = 000000000fff0000 	high:28 low:16
addr_dec_mask[COL]   = 0000000000001eff 	high:13 low:0
addr_dec_mask[BURST] = 000000000000003f 	high:6 low:0
sub_partition_id_mask = 0000000000000100
GPGPU-Sim uArch: clock freqs: 700000000.000000:700000000.000000:700000000.000000:924000000.000000
GPGPU-Sim uArch: clock periods: 0.00000000142857142857:0.00000000142857142857:0.00000000142857142857:0.00000000108225108225
*** Initializing Memory Statistics ***
GPGPU-Sim uArch: interconnect node map (shaderID+MemID to icntID)
GPGPU-Sim uArch: Memory nodes ID start from index: 15
GPGPU-Sim uArch:    0   1   2   3   4
GPGPU-Sim uArch:    5   6   7   8   9
GPGPU-Sim uArch:   10  11  12  13  14
GPGPU-Sim uArch:   15  16  17  18  19
GPGPU-Sim uArch:   20  21  22  23  24
GPGPU-Sim uArch:   25  26
GPGPU-Sim uArch: interconnect node reverse map (icntID to shaderID+MemID)
GPGPU-Sim uArch: Memory nodes start from ID: 15
GPGPU-Sim uArch:    0   1   2   3   4
GPGPU-Sim uArch:    5   6   7   8   9
GPGPU-Sim uArch:   10  11  12  13  14
GPGPU-Sim uArch:   15  16  17  18  19
GPGPU-Sim uArch:   20  21  22  23  24
GPGPU-Sim uArch:   25  26
3fa74dcf5bb311ca4655fba912a73286  /root/ispass2009-benchmarks/bin/release/NN
GPGPU-Sim uArch: performance model initialization complete.
GPGPU-Sim PTX: __cudaRegisterFatBinary, fat_cubin_handle = 1, filename=NN.cu
self exe links to: /root/ispass2009-benchmarks/bin/release/NN
Running md5sum using "md5sum /root/ispass2009-benchmarks/bin/release/NN "
Running cuobjdump using "$CUDA_INSTALL_PATH/bin/cuobjdump -ptx -elf -sass /root/ispass2009-benchmarks/bin/release/NN > _cuobjdump_complete_output_mRbgVr"
Parsing file _cuobjdump_complete_output_mRbgVr
######### cuobjdump parser ########
## Adding new section PTX
Adding ptx filename: _cuobjdump_1.ptx
Adding arch: sm_10
Adding identifier: NN.cu
## Adding new section ELF
Adding arch: sm_10
Adding identifier: NN.cu
## Adding new section PTX
Adding ptx filename: _cuobjdump_2.ptx
Adding arch: sm_20
Adding identifier: NN.cu
## Adding new section ELF
Adding arch: sm_20
Adding identifier: NN.cu
Done parsing!!!
GPGPU-Sim PTX: __cudaRegisterFunction _Z18executeFourthLayerPfS_S_ : hostFun 0x0x4010a0, fat_cubin_handle = 1
GPGPU-Sim PTX: allocating constant region for "kernelTemplate" from 0x100 to 0x164 (global memory space) 1
GPGPU-Sim PTX: instruction assembly for function '_Z17executeFirstLayerPfS_S_'...   done.
GPGPU-Sim PTX: finding reconvergence points for '_Z17executeFirstLayerPfS_S_'...
GPGPU-Sim PTX: Finding dominators for '_Z17executeFirstLayerPfS_S_'...
GPGPU-Sim PTX: Finding immediate dominators for '_Z17executeFirstLayerPfS_S_'...
GPGPU-Sim PTX: Finding postdominators for '_Z17executeFirstLayerPfS_S_'...
GPGPU-Sim PTX: Finding immediate postdominators for '_Z17executeFirstLayerPfS_S_'...
GPGPU-Sim PTX: pre-decoding instructions for '_Z17executeFirstLayerPfS_S_'...
GPGPU-Sim PTX: reconvergence points for _Z17executeFirstLayerPfS_S_...
GPGPU-Sim PTX:  1 (potential) branch divergence @  PC=0x100 (_1.ptx:100) @%p1 bra $Lt_0_4098;
GPGPU-Sim PTX:    immediate post dominator      @  PC=0x108 (_1.ptx:102) cvt.f64.f32 %fd1, %f1;
GPGPU-Sim PTX:  2 (potential) branch divergence @  PC=0x148 (_1.ptx:110) @!%p2 bra $Lt_0_4866;
GPGPU-Sim PTX:    immediate post dominator      @  PC=0x2a8 (_1.ptx:162) cvt.f64.f32 %fd5, %f29;
GPGPU-Sim PTX:  3 (potential) branch divergence @  PC=0x230 (_1.ptx:142) bra.uni $Lt_0_4610;
GPGPU-Sim PTX:    immediate post dominator      @  PC=0x2a8 (_1.ptx:162) cvt.f64.f32 %fd5, %f29;
GPGPU-Sim PTX: ... end of reconvergence points for _Z17executeFirstLayerPfS_S_
GPGPU-Sim PTX: ... done pre-decoding instructions for '_Z17executeFirstLayerPfS_S_'.
GPGPU-Sim PTX: allocating constant region for "kernelTemplate2" from 0x180 to 0x1e4 (global memory space) 2
GPGPU-Sim PTX: instruction assembly for function '_Z18executeSecondLayerPfS_S_'...   done.
GPGPU-Sim PTX: finding reconvergence points for '_Z18executeSecondLayerPfS_S_'...
GPGPU-Sim PTX: Finding dominators for '_Z18executeSecondLayerPfS_S_'...
GPGPU-Sim PTX: Finding immediate dominators for '_Z18executeSecondLayerPfS_S_'...
GPGPU-Sim PTX: Finding postdominators for '_Z18executeSecondLayerPfS_S_'...
GPGPU-Sim PTX: Finding immediate postdominators for '_Z18executeSecondLayerPfS_S_'...
GPGPU-Sim PTX: pre-decoding instructions for '_Z18executeSecondLayerPfS_S_'...
GPGPU-Sim PTX: reconvergence points for _Z18executeSecondLayerPfS_S_...
GPGPU-Sim PTX:  1 (potential) branch divergence @  PC=0x4a0 (_1.ptx:251) @%p1 bra $Lt_1_5634;
GPGPU-Sim PTX:    immediate post dominator      @  PC=0x4a8 (_1.ptx:253) cvt.f64.f32 %fd1, %f1;
GPGPU-Sim PTX:  2 (potential) branch divergence @  PC=0x4e8 (_1.ptx:261) @!%p2 bra $Lt_1_6402;
GPGPU-Sim PTX:    immediate post dominator      @  PC=0x648 (_1.ptx:313) cvt.f64.f32 %fd5, %f44;
GPGPU-Sim PTX:  3 (potential) branch divergence @  PC=0x5d0 (_1.ptx:293) bra.uni $Lt_1_6146;
GPGPU-Sim PTX:    immediate post dominator      @  PC=0x648 (_1.ptx:313) cvt.f64.f32 %fd5, %f44;
GPGPU-Sim PTX: ... end of reconvergence points for _Z18executeSecondLayerPfS_S_
GPGPU-Sim PTX: ... done pre-decoding instructions for '_Z18executeSecondLayerPfS_S_'.
GPGPU-Sim PTX: instruction assembly for function '_Z17executeThirdLayerPfS_S_'...   done.
GPGPU-Sim PTX: finding reconvergence points for '_Z17executeThirdLayerPfS_S_'...
GPGPU-Sim PTX: Finding dominators for '_Z17executeThirdLayerPfS_S_'...
GPGPU-Sim PTX: Finding immediate dominators for '_Z17executeThirdLayerPfS_S_'...
GPGPU-Sim PTX: Finding postdominators for '_Z17executeThirdLayerPfS_S_'...
GPGPU-Sim PTX: Finding immediate postdominators for '_Z17executeThirdLayerPfS_S_'...
GPGPU-Sim PTX: pre-decoding instructions for '_Z17executeThirdLayerPfS_S_'...
GPGPU-Sim PTX: reconvergence points for _Z17executeThirdLayerPfS_S_...
GPGPU-Sim PTX:  1 (potential) branch divergence @  PC=0x788 (_1.ptx:373) @%p1 bra $Lt_2_4098;
GPGPU-Sim PTX:    immediate post dominator      @  PC=0x790 (_1.ptx:375) cvt.f64.f32 %fd1, %f1;
GPGPU-Sim PTX:  2 (potential) branch divergence @  PC=0x7d0 (_1.ptx:383) @!%p2 bra $Lt_2_4866;
GPGPU-Sim PTX:    immediate post dominator      @  PC=0x930 (_1.ptx:435) cvt.f64.f32 %fd5, %f29;
GPGPU-Sim PTX:  3 (potential) branch divergence @  PC=0x8b8 (_1.ptx:415) bra.uni $Lt_2_4610;
GPGPU-Sim PTX:    immediate post dominator      @  PC=0x930 (_1.ptx:435) cvt.f64.f32 %fd5, %f29;
GPGPU-Sim PTX: ... end of reconvergence points for _Z17executeThirdLayerPfS_S_
GPGPU-Sim PTX: ... done pre-decoding instructions for '_Z17executeThirdLayerPfS_S_'.
GPGPU-Sim PTX: instruction assembly for function '_Z18executeFourthLayerPfS_S_'...   done.
GPGPU-Sim PTX: finding reconvergence points for '_Z18executeFourthLayerPfS_S_'...
GPGPU-Sim PTX: Finding dominators for '_Z18executeFourthLayerPfS_S_'...
GPGPU-Sim PTX: Finding immediate dominators for '_Z18executeFourthLayerPfS_S_'...
GPGPU-Sim PTX: Finding postdominators for '_Z18executeFourthLayerPfS_S_'...
GPGPU-Sim PTX: Finding immediate postdominators for '_Z18executeFourthLayerPfS_S_'...
GPGPU-Sim PTX: pre-decoding instructions for '_Z18executeFourthLayerPfS_S_'...
GPGPU-Sim PTX: reconvergence points for _Z18executeFourthLayerPfS_S_...
GPGPU-Sim PTX:  1 (potential) branch divergence @  PC=0xa50 (_1.ptx:491) @%p1 bra $Lt_3_4098;
GPGPU-Sim PTX:    immediate post dominator      @  PC=0xa58 (_1.ptx:493) cvt.f64.f32 %fd1, %f1;
GPGPU-Sim PTX:  2 (potential) branch divergence @  PC=0xa98 (_1.ptx:501) @!%p2 bra $Lt_3_4866;
GPGPU-Sim PTX:    immediate post dominator      @  PC=0xbf8 (_1.ptx:553) cvt.f64.f32 %fd5, %f29;
GPGPU-Sim PTX:  3 (potential) branch divergence @  PC=0xb80 (_1.ptx:533) bra.uni $Lt_3_4610;
GPGPU-Sim PTX:    immediate post dominator      @  PC=0xbf8 (_1.ptx:553) cvt.f64.f32 %fd5, %f29;
GPGPU-Sim PTX: ... end of reconvergence points for _Z18executeFourthLayerPfS_S_
GPGPU-Sim PTX: ... done pre-decoding instructions for '_Z18executeFourthLayerPfS_S_'.
GPGPU-Sim PTX: finished parsing EMBEDDED .ptx file _1.ptx
Adding _cuobjdump_2.ptx with cubin handle 1
GPGPU-Sim PTX: extracting embedded .ptx to temporary file "_ptx_kAqFHh"
Running: cat _ptx_kAqFHh | sed 's/.version 1.5/.version 1.4/' | sed 's/, texmode_independent//' | sed 's/\(\.extern \.const\[1\] .b8 \w\+\)\[\]/\1\[1\]/' | sed 's/const\[.\]/const\[0\]/g' > _ptx2_Vhs5t7
GPGPU-Sim PTX: generating ptxinfo using "$CUDA_INSTALL_PATH/bin/ptxas --gpu-name=sm_20 -v _ptx2_Vhs5t7 --output-file  /dev/null 2> _ptx_kAqFHhinfo"
GPGPU-Sim PTX: Kernel '_Z18executeFourthLayerPfS_S_' : regs=12, lmem=0, smem=0, cmem=288
GPGPU-Sim PTX: Kernel '_Z17executeThirdLayerPfS_S_' : regs=12, lmem=0, smem=0, cmem=288
GPGPU-Sim PTX: Kernel '_Z18executeSecondLayerPfS_S_' : regs=22, lmem=0, smem=0, cmem=288
GPGPU-Sim PTX: Kernel '_Z17executeFirstLayerPfS_S_' : regs=17, lmem=0, smem=0, cmem=288
GPGPU-Sim PTX: removing ptxinfo using "rm -f _ptx_kAqFHh _ptx2_Vhs5t7 _ptx_kAqFHhinfo"
GPGPU-Sim PTX: loading globals with explicit initializers... 
GPGPU-Sim PTX: finished loading globals (0 bytes total).
GPGPU-Sim PTX: loading constants with explicit initializers...  done.
GPGPU-Sim PTX: __cudaRegisterFunction _Z17executeThirdLayerPfS_S_ : hostFun 0x0x401130, fat_cubin_handle = 1
GPGPU-Sim PTX: __cudaRegisterFunction _Z18executeSecondLayerPfS_S_ : hostFun 0x0x4011c0, fat_cubin_handle = 1
GPGPU-Sim PTX: __cudaRegisterFunction _Z17executeFirstLayerPfS_S_ : hostFun 0x0x401250, fat_cubin_handle = 1
GPGPU-Sim PTX: __cudaRegisterVar: hostVar = 0x610180; deviceAddress = kernelTemplate; deviceName = kernelTemplate
GPGPU-Sim PTX: __cudaRegisterVar: Registering const memory space of 100 bytes
GPGPU-Sim PTX registering constant kernelTemplate (100 bytes) to name mapping
GPGPU-Sim PTX: __cudaRegisterVar: hostVar = 0x610200; deviceAddress = kernelTemplate2; deviceName = kernelTemplate2
GPGPU-Sim PTX: __cudaRegisterVar: Registering const memory space of 100 bytes
GPGPU-Sim PTX registering constant kernelTemplate2 (100 bytes) to name mapping
magic number = 2051
number of items = 10000
number of rows = 28
number of rows = 28
NUM=28

GPGPU-Sim PTX: cudaLaunch for 0x0x401250 (mode=performance simulation) on stream 0
GPGPU-Sim PTX: pushing kernel '_Z17executeFirstLayerPfS_S_' to stream 0, gridDim= (6,28,1) blockDim = (13,13,1) 
kernel '_Z17executeFirstLayerPfS_S_' transfer to GPU hardware scheduler
GPGPU-Sim uArch: Shader 1 bind to kernel 1 '_Z17executeFirstLayerPfS_S_'
GPGPU-Sim uArch: CTA/core = 8, limited by: threads regs cta_limit
GPGPU-Sim uArch: core:  1, cta: 0 initialized @(1,0)
GPGPU-Sim uArch: Shader 2 bind to kernel 1 '_Z17executeFirstLayerPfS_S_'
GPGPU-Sim uArch: core:  2, cta: 0 initialized @(1,0)
GPGPU-Sim uArch: Shader 3 bind to kernel 1 '_Z17executeFirstLayerPfS_S_'
GPGPU-Sim uArch: core:  3, cta: 0 initialized @(1,0)
GPGPU-Sim uArch: Shader 4 bind to kernel 1 '_Z17executeFirstLayerPfS_S_'
GPGPU-Sim uArch: core:  4, cta: 0 initialized @(1,0)
GPGPU-Sim uArch: Shader 5 bind to kernel 1 '_Z17executeFirstLayerPfS_S_'
GPGPU-Sim uArch: core:  5, cta: 0 initialized @(1,0)
GPGPU-Sim uArch: Shader 6 bind to kernel 1 '_Z17executeFirstLayerPfS_S_'
GPGPU-Sim uArch: core:  6, cta: 0 initialized @(1,0)
GPGPU-Sim uArch: Shader 7 bind to kernel 1 '_Z17executeFirstLayerPfS_S_'
GPGPU-Sim uArch: core:  7, cta: 0 initialized @(1,0)
GPGPU-Sim uArch: Shader 8 bind to kernel 1 '_Z17executeFirstLayerPfS_S_'
GPGPU-Sim uArch: core:  8, cta: 0 initialized @(1,0)
GPGPU-Sim uArch: Shader 9 bind to kernel 1 '_Z17executeFirstLayerPfS_S_'
GPGPU-Sim uArch: core:  9, cta: 0 initialized @(1,0)
GPGPU-Sim uArch: Shader 10 bind to kernel 1 '_Z17executeFirstLayerPfS_S_'
GPGPU-Sim uArch: core: 10, cta: 0 initialized @(1,0)
GPGPU-Sim uArch: Shader 11 bind to kernel 1 '_Z17executeFirstLayerPfS_S_'
GPGPU-Sim uArch: core: 11, cta: 0 initialized @(1,0)
GPGPU-Sim uArch: Shader 12 bind to kernel 1 '_Z17executeFirstLayerPfS_S_'
GPGPU-Sim uArch: core: 12, cta: 0 initialized @(1,0)
GPGPU-Sim uArch: Shader 13 bind to kernel 1 '_Z17executeFirstLayerPfS_S_'
GPGPU-Sim uArch: core: 13, cta: 0 initialized @(1,0)
GPGPU-Sim uArch: Shader 14 bind to kernel 1 '_Z17executeFirstLayerPfS_S_'
GPGPU-Sim uArch: core: 14, cta: 0 initialized @(1,0)
GPGPU-Sim uArch: Shader 0 bind to kernel 1 '_Z17executeFirstLayerPfS_S_'
GPGPU-Sim uArch: core:  0, cta: 0 initialized @(1,0)
GPGPU-Sim uArch: core:  1, cta: 1 initialized @(2,0)
GPGPU-Sim uArch: core:  2, cta: 1 initialized @(2,0)
GPGPU-Sim uArch: core:  3, cta: 1 initialized @(2,0)
GPGPU-Sim uArch: core:  4, cta: 1 initialized @(2,0)
GPGPU-Sim uArch: core:  5, cta: 1 initialized @(2,0)
GPGPU-Sim uArch: core:  6, cta: 1 initialized @(2,0)
GPGPU-Sim uArch: core:  7, cta: 1 initialized @(2,0)
GPGPU-Sim uArch: core:  8, cta: 1 initialized @(2,0)
GPGPU-Sim uArch: core:  9, cta: 1 initialized @(2,0)
GPGPU-Sim uArch: core: 10, cta: 1 initialized @(2,0)
GPGPU-Sim uArch: core: 11, cta: 1 initialized @(2,0)
GPGPU-Sim uArch: core: 12, cta: 1 initialized @(2,0)
GPGPU-Sim uArch: core: 13, cta: 1 initialized @(2,0)
GPGPU-Sim uArch: core: 14, cta: 1 initialized @(2,0)
GPGPU-Sim uArch: core:  0, cta: 1 initialized @(2,0)
GPGPU-Sim uArch: core:  1, cta: 2 initialized @(3,0)
GPGPU-Sim uArch: core:  2, cta: 2 initialized @(3,0)
GPGPU-Sim uArch: core:  3, cta: 2 initialized @(3,0)
GPGPU-Sim uArch: core:  4, cta: 2 initialized @(3,0)
GPGPU-Sim uArch: core:  5, cta: 2 initialized @(3,0)
GPGPU-Sim uArch: core:  6, cta: 2 initialized @(3,0)
GPGPU-Sim uArch: core:  7, cta: 2 initialized @(3,0)
GPGPU-Sim uArch: core:  8, cta: 2 initialized @(3,0)
GPGPU-Sim uArch: core:  9, cta: 2 initialized @(3,0)
GPGPU-Sim uArch: core: 10, cta: 2 initialized @(3,0)
GPGPU-Sim uArch: core: 11, cta: 2 initialized @(3,0)
GPGPU-Sim uArch: core: 12, cta: 2 initialized @(3,0)
GPGPU-Sim uArch: core: 13, cta: 2 initialized @(3,0)
GPGPU-Sim uArch: core: 14, cta: 2 initialized @(3,0)
GPGPU-Sim uArch: core:  0, cta: 2 initialized @(3,0)
GPGPU-Sim uArch: core:  1, cta: 3 initialized @(4,0)
GPGPU-Sim uArch: core:  2, cta: 3 initialized @(4,0)
GPGPU-Sim uArch: core:  3, cta: 3 initialized @(4,0)
GPGPU-Sim uArch: core:  4, cta: 3 initialized @(4,0)
GPGPU-Sim uArch: core:  5, cta: 3 initialized @(4,0)
GPGPU-Sim uArch: core:  6, cta: 3 initialized @(4,0)
GPGPU-Sim uArch: core:  7, cta: 3 initialized @(4,0)
GPGPU-Sim uArch: core:  8, cta: 3 initialized @(4,0)
GPGPU-Sim uArch: core:  9, cta: 3 initialized @(4,0)
GPGPU-Sim uArch: core: 10, cta: 3 initialized @(4,0)
GPGPU-Sim uArch: core: 11, cta: 3 initialized @(4,0)
GPGPU-Sim uArch: core: 12, cta: 3 initialized @(4,0)
GPGPU-Sim uArch: core: 13, cta: 3 initialized @(4,0)
GPGPU-Sim uArch: core: 14, cta: 3 initialized @(4,0)
GPGPU-Sim uArch: core:  0, cta: 3 initialized @(4,0)
GPGPU-Sim uArch: core:  1, cta: 4 initialized @(5,0)
GPGPU-Sim uArch: core:  2, cta: 4 initialized @(5,0)
GPGPU-Sim uArch: core:  3, cta: 4 initialized @(5,0)
GPGPU-Sim uArch: core:  4, cta: 4 initialized @(5,0)
GPGPU-Sim uArch: core:  5, cta: 4 initialized @(5,0)
GPGPU-Sim uArch: core:  6, cta: 4 initialized @(5,0)
GPGPU-Sim uArch: core:  7, cta: 4 initialized @(5,0)
GPGPU-Sim uArch: core:  8, cta: 4 initialized @(5,0)
GPGPU-Sim uArch: core:  9, cta: 4 initialized @(5,0)
GPGPU-Sim uArch: core: 10, cta: 4 initialized @(5,0)
GPGPU-Sim uArch: core: 11, cta: 4 initialized @(5,0)
GPGPU-Sim uArch: core: 12, cta: 4 initialized @(5,0)
GPGPU-Sim uArch: core: 13, cta: 4 initialized @(5,0)
GPGPU-Sim uArch: core: 14, cta: 4 initialized @(5,0)
GPGPU-Sim uArch: core:  0, cta: 4 initialized @(5,0)
GPGPU-Sim uArch: core:  1, cta: 5 initialized @(6,0)
GPGPU-Sim uArch: core:  2, cta: 5 initialized @(6,0)
GPGPU-Sim uArch: core:  3, cta: 5 initialized @(6,0)
GPGPU-Sim uArch: core:  4, cta: 5 initialized @(6,0)
GPGPU-Sim uArch: core:  5, cta: 5 initialized @(6,0)
GPGPU-Sim uArch: core:  6, cta: 5 initialized @(6,0)
GPGPU-Sim uArch: core:  7, cta: 5 initialized @(6,0)
GPGPU-Sim uArch: core:  8, cta: 5 initialized @(6,0)
GPGPU-Sim uArch: core:  9, cta: 5 initialized @(6,0)
GPGPU-Sim uArch: core: 10, cta: 5 initialized @(6,0)
GPGPU-Sim uArch: core: 11, cta: 5 initialized @(6,0)
GPGPU-Sim uArch: core: 12, cta: 5 initialized @(6,0)
GPGPU-Sim uArch: core: 13, cta: 5 initialized @(6,0)
GPGPU-Sim uArch: core: 14, cta: 5 initialized @(6,0)
GPGPU-Sim uArch: core:  0, cta: 5 initialized @(6,0)
GPGPU-Sim uArch: core:  1, cta: 6 initialized @(7,0)
GPGPU-Sim uArch: core:  2, cta: 6 initialized @(7,0)
GPGPU-Sim uArch: core:  3, cta: 6 initialized @(7,0)
GPGPU-Sim uArch: core:  4, cta: 6 initialized @(7,0)
GPGPU-Sim uArch: core:  5, cta: 6 initialized @(7,0)
GPGPU-Sim uArch: core:  6, cta: 6 initialized @(7,0)
GPGPU-Sim uArch: core:  7, cta: 6 initialized @(7,0)
GPGPU-Sim uArch: core:  8, cta: 6 initialized @(7,0)
GPGPU-Sim uArch: core:  9, cta: 6 initialized @(7,0)
GPGPU-Sim uArch: core: 10, cta: 6 initialized @(7,0)
GPGPU-Sim uArch: core: 11, cta: 6 initialized @(7,0)
GPGPU-Sim uArch: core: 12, cta: 6 initialized @(7,0)
GPGPU-Sim uArch: core: 13, cta: 6 initialized @(7,0)
GPGPU-Sim uArch: core: 14, cta: 6 initialized @(7,0)
GPGPU-Sim uArch: core:  0, cta: 6 initialized @(7,0)
GPGPU-Sim uArch: core:  1, cta: 7 initialized @(8,0)
GPGPU-Sim uArch: core:  2, cta: 7 initialized @(8,0)
GPGPU-Sim uArch: core:  3, cta: 7 initialized @(8,0)
GPGPU-Sim uArch: core:  4, cta: 7 initialized @(8,0)
GPGPU-Sim uArch: core:  5, cta: 7 initialized @(8,0)
GPGPU-Sim uArch: core:  6, cta: 7 initialized @(8,0)
GPGPU-Sim uArch: core:  7, cta: 7 initialized @(8,0)
GPGPU-Sim uArch: core:  8, cta: 7 initialized @(8,0)
GPGPU-Sim uArch: core:  9, cta: 7 initialized @(8,0)
GPGPU-Sim uArch: core: 10, cta: 7 initialized @(8,0)
GPGPU-Sim uArch: core: 11, cta: 7 initialized @(8,0)
GPGPU-Sim uArch: core: 12, cta: 7 initialized @(8,0)
GPGPU-Sim uArch: core: 13, cta: 7 initialized @(8,0)
GPGPU-Sim uArch: core: 14, cta: 7 initialized @(8,0)
GPGPU-Sim uArch: core:  0, cta: 7 initialized @(8,0)
GPGPU-Sim uArch: cycles simulated: 500  inst.: 70695 (ipc=141.4) sim_rate=70695 (inst/sec) elapsed = 0:0:00:01 / Wed Nov 16 02:54:57 2022
GPGPU-Sim PTX: 100000 instructions simulated : ctaid=(2,0,0) tid=(0,12,0)
GPGPU-Sim PTX: 200000 instructions simulated : ctaid=(5,7,0) tid=(8,5,0)
GPGPU-Sim PTX: 300000 instructions simulated : ctaid=(3,13,0) tid=(9,12,0)
GPGPU-Sim PTX: 400000 instructions simulated : ctaid=(0,0,0) tid=(9,5,0)
GPGPU-Sim PTX: 500000 instructions simulated : ctaid=(0,0,0) tid=(2,12,0)
GPGPU-Sim PTX: 600000 instructions simulated : ctaid=(4,5,0) tid=(9,7,0)
GPGPU-Sim PTX: 700000 instructions simulated : ctaid=(4,3,0) tid=(9,11,0)
GPGPU-Sim PTX: 800000 instructions simulated : ctaid=(0,7,0) tid=(4,1,0)
GPGPU-Sim PTX: 900000 instructions simulated : ctaid=(4,3,0) tid=(8,10,0)
GPGPU-Sim PTX: 1000000 instructions simulated : ctaid=(5,3,0) tid=(12,8,0)
GPGPU-Sim PTX: 1100000 instructions simulated : ctaid=(3,6,0) tid=(8,4,0)
GPGPU-Sim PTX: 1200000 instructions simulated : ctaid=(4,5,0) tid=(6,1,0)
GPGPU-Sim PTX: 1300000 instructions simulated : ctaid=(0,8,0) tid=(0,4,0)
GPGPU-Sim PTX: 1400000 instructions simulated : ctaid=(0,9,0) tid=(4,6,0)
GPGPU-Sim PTX: 1500000 instructions simulated : ctaid=(0,0,0) tid=(9,9,0)
GPGPU-Sim uArch: cycles simulated: 5000  inst.: 1558943 (ipc=311.8) sim_rate=779471 (inst/sec) elapsed = 0:0:00:02 / Wed Nov 16 02:54:59 2022
GPGPU-Sim PTX: 1600000 instructions simulated : ctaid=(3,14,0) tid=(6,6,0)
GPGPU-Sim PTX: 1700000 instructions simulated : ctaid=(0,7,0) tid=(8,5,0)
GPGPU-Sim PTX: 1800000 instructions simulated : ctaid=(1,1,0) tid=(9,9,0)
GPGPU-Sim PTX: 1900000 instructions simulated : ctaid=(2,2,0) tid=(5,10,0)
GPGPU-Sim PTX: 2000000 instructions simulated : ctaid=(5,5,0) tid=(5,6,0)
GPGPU-Sim PTX: 2100000 instructions simulated : ctaid=(5,8,0) tid=(1,5,0)
GPGPU-Sim PTX: 2200000 instructions simulated : ctaid=(0,8,0) tid=(3,8,0)
GPGPU-Sim PTX: 2300000 instructions simulated : ctaid=(2,1,0) tid=(10,12,0)
GPGPU-Sim PTX: 2400000 instructions simulated : ctaid=(5,4,0) tid=(7,5,0)
GPGPU-Sim uArch: cycles simulated: 7500  inst.: 2462571 (ipc=328.3) sim_rate=820857 (inst/sec) elapsed = 0:0:00:03 / Wed Nov 16 02:55:00 2022
GPGPU-Sim PTX: 2500000 instructions simulated : ctaid=(5,10,0) tid=(3,3,0)
GPGPU-Sim PTX: 2600000 instructions simulated : ctaid=(4,5,0) tid=(0,4,0)
GPGPU-Sim PTX: 2700000 instructions simulated : ctaid=(2,4,0) tid=(0,6,0)
GPGPU-Sim PTX: 2800000 instructions simulated : ctaid=(4,2,0) tid=(9,11,0)
GPGPU-Sim PTX: 2900000 instructions simulated : ctaid=(1,3,0) tid=(12,9,0)
GPGPU-Sim PTX: 3000000 instructions simulated : ctaid=(4,2,0) tid=(3,1,0)
GPGPU-Sim PTX: 3100000 instructions simulated : ctaid=(0,4,0) tid=(6,8,0)
GPGPU-Sim PTX: 3200000 instructions simulated : ctaid=(5,1,0) tid=(7,2,0)
GPGPU-Sim PTX: 3300000 instructions simulated : ctaid=(2,1,0) tid=(7,1,0)
GPGPU-Sim PTX: 3400000 instructions simulated : ctaid=(4,1,0) tid=(11,10,0)
GPGPU-Sim uArch: cycles simulated: 10000  inst.: 3449133 (ipc=344.9) sim_rate=862283 (inst/sec) elapsed = 0:0:00:04 / Wed Nov 16 02:55:01 2022
GPGPU-Sim PTX: 3500000 instructions simulated : ctaid=(2,18,0) tid=(6,2,0)
GPGPU-Sim PTX: 3600000 instructions simulated : ctaid=(5,7,0) tid=(10,6,0)
GPGPU-Sim PTX: 3700000 instructions simulated : ctaid=(0,6,0) tid=(4,5,0)
GPGPU-Sim PTX: 3800000 instructions simulated : ctaid=(2,11,0) tid=(0,5,0)
GPGPU-Sim PTX: 3900000 instructions simulated : ctaid=(1,18,0) tid=(1,0,0)
GPGPU-Sim PTX: 4000000 instructions simulated : ctaid=(2,10,0) tid=(6,5,0)
GPGPU-Sim PTX: 4100000 instructions simulated : ctaid=(4,15,0) tid=(8,4,0)
GPGPU-Sim PTX: 4200000 instructions simulated : ctaid=(2,14,0) tid=(8,5,0)
GPGPU-Sim PTX: 4300000 instructions simulated : ctaid=(4,4,0) tid=(1,8,0)
GPGPU-Sim uArch: Shader 5 finished CTA #0 (12355,0), 7 CTAs running
GPGPU-Sim uArch: core:  5, cta: 0 initialized @(12356,0)
GPGPU-Sim PTX: 4400000 instructions simulated : ctaid=(4,10,0) tid=(8,6,0)
GPGPU-Sim uArch: cycles simulated: 13000  inst.: 4472820 (ipc=344.1) sim_rate=894564 (inst/sec) elapsed = 0:0:00:05 / Wed Nov 16 02:55:02 2022
GPGPU-Sim PTX: 4500000 instructions simulated : ctaid=(0,9,0) tid=(0,9,0)
GPGPU-Sim uArch: Shader 6 finished CTA #0 (13268,0), 7 CTAs running
GPGPU-Sim uArch: core:  6, cta: 0 initialized @(13269,0)
GPGPU-Sim PTX: 4600000 instructions simulated : ctaid=(1,5,0) tid=(2,11,0)
GPGPU-Sim PTX: 4700000 instructions simulated : ctaid=(4,7,0) tid=(0,9,0)
GPGPU-Sim uArch: Shader 4 finished CTA #0 (13930,0), 7 CTAs running
GPGPU-Sim uArch: core:  4, cta: 0 initialized @(13931,0)
GPGPU-Sim PTX: 4800000 instructions simulated : ctaid=(4,7,0) tid=(3,4,0)
GPGPU-Sim PTX: 4900000 instructions simulated : ctaid=(5,11,0) tid=(0,3,0)
GPGPU-Sim PTX: 5000000 instructions simulated : ctaid=(4,8,0) tid=(7,0,0)
GPGPU-Sim uArch: Shader 2 finished CTA #1 (14656,0), 7 CTAs running
GPGPU-Sim uArch: core:  2, cta: 1 initialized @(14657,0)
GPGPU-Sim PTX: 5100000 instructions simulated : ctaid=(2,0,0) tid=(8,6,0)
GPGPU-Sim uArch: Shader 1 finished CTA #1 (14961,0), 7 CTAs running
GPGPU-Sim uArch: core:  1, cta: 1 initialized @(14962,0)
GPGPU-Sim uArch: Shader 10 finished CTA #0 (15096,0), 7 CTAs running
GPGPU-Sim uArch: core: 10, cta: 0 initialized @(15097,0)
GPGPU-Sim PTX: 5200000 instructions simulated : ctaid=(1,20,0) tid=(10,10,0)
GPGPU-Sim uArch: Shader 12 finished CTA #0 (15248,0), 7 CTAs running
GPGPU-Sim uArch: core: 12, cta: 0 initialized @(15249,0)
GPGPU-Sim uArch: Shader 5 finished CTA #1 (15295,0), 7 CTAs running
GPGPU-Sim uArch: core:  5, cta: 1 initialized @(15296,0)
GPGPU-Sim PTX: 5300000 instructions simulated : ctaid=(5,6,0) tid=(0,10,0)
GPGPU-Sim uArch: Shader 3 finished CTA #1 (15482,0), 7 CTAs running
GPGPU-Sim uArch: core:  3, cta: 1 initialized @(15483,0)
GPGPU-Sim uArch: cycles simulated: 15500  inst.: 5339994 (ipc=344.5) sim_rate=889999 (inst/sec) elapsed = 0:0:00:06 / Wed Nov 16 02:55:03 2022
GPGPU-Sim uArch: Shader 0 finished CTA #2 (15583,0), 7 CTAs running
GPGPU-Sim uArch: core:  0, cta: 2 initialized @(15584,0)
GPGPU-Sim PTX: 5400000 instructions simulated : ctaid=(2,11,0) tid=(8,4,0)
GPGPU-Sim PTX: 5500000 instructions simulated : ctaid=(3,11,0) tid=(0,7,0)
GPGPU-Sim uArch: Shader 11 finished CTA #0 (15821,0), 7 CTAs running
GPGPU-Sim uArch: core: 11, cta: 0 initialized @(15822,0)
GPGPU-Sim PTX: 5600000 instructions simulated : ctaid=(5,20,0) tid=(0,10,0)
GPGPU-Sim uArch: Shader 13 finished CTA #0 (16109,0), 7 CTAs running
GPGPU-Sim uArch: core: 13, cta: 0 initialized @(16110,0)
GPGPU-Sim uArch: Shader 0 finished CTA #0 (16128,0), 7 CTAs running
GPGPU-Sim uArch: core:  0, cta: 0 initialized @(16129,0)
GPGPU-Sim uArch: Shader 13 finished CTA #2 (16134,0), 7 CTAs running
GPGPU-Sim uArch: core: 13, cta: 2 initialized @(16135,0)
GPGPU-Sim uArch: Shader 14 finished CTA #0 (16144,0), 7 CTAs running
GPGPU-Sim uArch: core: 14, cta: 0 initialized @(16145,0)
GPGPU-Sim uArch: Shader 0 finished CTA #1 (16190,0), 7 CTAs running
GPGPU-Sim uArch: core:  0, cta: 1 initialized @(16191,0)
GPGPU-Sim PTX: 5700000 instructions simulated : ctaid=(2,13,0) tid=(0,7,0)
GPGPU-Sim uArch: Shader 14 finished CTA #1 (16247,0), 7 CTAs running
GPGPU-Sim uArch: core: 14, cta: 1 initialized @(16248,0)
GPGPU-Sim uArch: Shader 3 finished CTA #0 (16386,0), 7 CTAs running
GPGPU-Sim uArch: core:  3, cta: 0 initialized @(16387,0)
GPGPU-Sim uArch: Shader 6 finished CTA #1 (16452,0), 7 CTAs running
GPGPU-Sim uArch: core:  6, cta: 1 initialized @(16453,0)
GPGPU-Sim PTX: 5800000 instructions simulated : ctaid=(5,14,0) tid=(8,5,0)
GPGPU-Sim uArch: Shader 4 finished CTA #1 (16644,0), 7 CTAs running
GPGPU-Sim uArch: core:  4, cta: 1 initialized @(16645,0)
GPGPU-Sim PTX: 5900000 instructions simulated : ctaid=(0,6,0) tid=(9,0,0)
GPGPU-Sim uArch: Shader 9 finished CTA #1 (16664,0), 7 CTAs running
GPGPU-Sim uArch: core:  9, cta: 1 initialized @(16665,0)
GPGPU-Sim uArch: Shader 4 finished CTA #3 (16666,0), 7 CTAs running
GPGPU-Sim uArch: core:  4, cta: 3 initialized @(16667,0)
GPGPU-Sim uArch: Shader 13 finished CTA #1 (16699,0), 7 CTAs running
GPGPU-Sim uArch: core: 13, cta: 1 initialized @(16700,0)
GPGPU-Sim PTX: 6000000 instructions simulated : ctaid=(0,9,0) tid=(3,12,0)
GPGPU-Sim PTX: 6100000 instructions simulated : ctaid=(4,10,0) tid=(0,9,0)
GPGPU-Sim PTX: 6200000 instructions simulated : ctaid=(2,20,0) tid=(12,2,0)
GPGPU-Sim uArch: cycles simulated: 17500  inst.: 6242035 (ipc=356.7) sim_rate=891719 (inst/sec) elapsed = 0:0:00:07 / Wed Nov 16 02:55:04 2022
GPGPU-Sim uArch: Shader 14 finished CTA #2 (17535,0), 7 CTAs running
GPGPU-Sim uArch: core: 14, cta: 2 initialized @(17536,0)
GPGPU-Sim PTX: 6300000 instructions simulated : ctaid=(2,15,0) tid=(11,9,0)
GPGPU-Sim uArch: Shader 4 finished CTA #2 (17680,0), 7 CTAs running
GPGPU-Sim uArch: core:  4, cta: 2 initialized @(17681,0)
GPGPU-Sim PTX: 6400000 instructions simulated : ctaid=(4,22,0) tid=(11,1,0)
GPGPU-Sim uArch: Shader 5 finished CTA #3 (17850,0), 7 CTAs running
GPGPU-Sim uArch: core:  5, cta: 3 initialized @(17851,0)
GPGPU-Sim uArch: Shader 6 finished CTA #3 (17880,0), 7 CTAs running
GPGPU-Sim uArch: core:  6, cta: 3 initialized @(17881,0)
GPGPU-Sim PTX: 6500000 instructions simulated : ctaid=(5,21,0) tid=(6,11,0)
GPGPU-Sim uArch: Shader 2 finished CTA #0 (18066,0), 7 CTAs running
GPGPU-Sim uArch: core:  2, cta: 0 initialized @(18067,0)
GPGPU-Sim uArch: Shader 8 finished CTA #1 (18095,0), 7 CTAs running
GPGPU-Sim uArch: core:  8, cta: 1 initialized @(18096,0)
GPGPU-Sim PTX: 6600000 instructions simulated : ctaid=(3,11,0) tid=(0,5,0)
GPGPU-Sim uArch: Shader 1 finished CTA #0 (18175,0), 7 CTAs running
GPGPU-Sim uArch: core:  1, cta: 0 initialized @(18176,0)
GPGPU-Sim uArch: Shader 8 finished CTA #2 (18209,0), 7 CTAs running
GPGPU-Sim uArch: core:  8, cta: 2 initialized @(18210,0)
GPGPU-Sim uArch: Shader 5 finished CTA #2 (18316,0), 7 CTAs running
GPGPU-Sim uArch: core:  5, cta: 2 initialized @(18317,0)
GPGPU-Sim PTX: 6700000 instructions simulated : ctaid=(0,17,0) tid=(6,3,0)
GPGPU-Sim uArch: Shader 12 finished CTA #2 (18344,0), 7 CTAs running
GPGPU-Sim uArch: core: 12, cta: 2 initialized @(18345,0)
GPGPU-Sim uArch: Shader 12 finished CTA #3 (18435,0), 7 CTAs running
GPGPU-Sim uArch: core: 12, cta: 3 initialized @(18436,0)
GPGPU-Sim PTX: 6800000 instructions simulated : ctaid=(2,18,0) tid=(5,0,0)
GPGPU-Sim uArch: Shader 8 finished CTA #0 (18609,0), 7 CTAs running
GPGPU-Sim uArch: core:  8, cta: 0 initialized @(18610,0)
GPGPU-Sim uArch: Shader 12 finished CTA #1 (18639,0), 7 CTAs running
GPGPU-Sim uArch: core: 12, cta: 1 initialized @(18640,0)
GPGPU-Sim PTX: 6900000 instructions simulated : ctaid=(0,22,0) tid=(8,8,0)
GPGPU-Sim uArch: Shader 0 finished CTA #3 (18715,0), 7 CTAs running
GPGPU-Sim uArch: core:  0, cta: 3 initialized @(18716,0)
GPGPU-Sim uArch: Shader 3 finished CTA #2 (18716,0), 7 CTAs running
GPGPU-Sim uArch: core:  3, cta: 2 initialized @(18717,0)
GPGPU-Sim PTX: 7000000 instructions simulated : ctaid=(4,16,0) tid=(3,3,0)
GPGPU-Sim uArch: Shader 7 finished CTA #1 (18852,0), 7 CTAs running
GPGPU-Sim uArch: core:  7, cta: 1 initialized @(18853,0)
GPGPU-Sim uArch: Shader 13 finished CTA #3 (18909,0), 7 CTAs running
GPGPU-Sim uArch: core: 13, cta: 3 initialized @(18910,0)
GPGPU-Sim uArch: Shader 6 finished CTA #2 (18929,0), 7 CTAs running
GPGPU-Sim uArch: core:  6, cta: 2 initialized @(18930,0)
GPGPU-Sim PTX: 7100000 instructions simulated : ctaid=(1,19,0) tid=(3,5,0)
GPGPU-Sim uArch: Shader 2 finished CTA #2 (19091,0), 7 CTAs running
GPGPU-Sim uArch: core:  2, cta: 2 initialized @(19092,0)
GPGPU-Sim uArch: Shader 9 finished CTA #0 (19120,0), 7 CTAs running
GPGPU-Sim uArch: core:  9, cta: 0 initialized @(19121,0)
GPGPU-Sim uArch: Shader 14 finished CTA #3 (19134,0), 7 CTAs running
GPGPU-Sim uArch: core: 14, cta: 3 initialized @(19135,0)
GPGPU-Sim PTX: 7200000 instructions simulated : ctaid=(3,14,0) tid=(4,3,0)
GPGPU-Sim uArch: Shader 7 finished CTA #2 (19298,0), 7 CTAs running
GPGPU-Sim uArch: core:  7, cta: 2 initialized @(19299,0)
GPGPU-Sim uArch: Shader 10 finished CTA #1 (19313,0), 7 CTAs running
GPGPU-Sim uArch: core: 10, cta: 1 initialized @(19314,0)
GPGPU-Sim PTX: 7300000 instructions simulated : ctaid=(0,16,0) tid=(11,12,0)
GPGPU-Sim uArch: Shader 11 finished CTA #1 (19352,0), 7 CTAs running
GPGPU-Sim uArch: core: 11, cta: 1 initialized @(19353,0)
GPGPU-Sim uArch: Shader 10 finished CTA #3 (19359,0), 7 CTAs running
GPGPU-Sim uArch: core: 10, cta: 3 initialized @(19360,0)
GPGPU-Sim uArch: Shader 10 finished CTA #2 (19428,0), 7 CTAs running
GPGPU-Sim uArch: Shader 1 finished CTA #2 (19451,0), 7 CTAs running
GPGPU-Sim uArch: cycles simulated: 19500  inst.: 7361039 (ipc=377.5) sim_rate=920129 (inst/sec) elapsed = 0:0:00:08 / Wed Nov 16 02:55:05 2022
GPGPU-Sim PTX: 7400000 instructions simulated : ctaid=(5,16,0) tid=(11,4,0)
GPGPU-Sim uArch: Shader 7 finished CTA #0 (19687,0), 7 CTAs running
GPGPU-Sim PTX: 7500000 instructions simulated : ctaid=(4,20,0) tid=(4,0,0)
GPGPU-Sim uArch: Shader 6 finished CTA #4 (19749,0), 7 CTAs running
GPGPU-Sim PTX: 7600000 instructions simulated : ctaid=(1,9,0) tid=(11,4,0)
GPGPU-Sim uArch: Shader 9 finished CTA #2 (20048,0), 7 CTAs running
GPGPU-Sim PTX: 7700000 instructions simulated : ctaid=(2,19,0) tid=(6,6,0)
GPGPU-Sim uArch: Shader 2 finished CTA #3 (20258,0), 7 CTAs running
GPGPU-Sim PTX: 7800000 instructions simulated : ctaid=(3,23,0) tid=(5,5,0)
GPGPU-Sim PTX: 7900000 instructions simulated : ctaid=(5,12,0) tid=(9,8,0)
GPGPU-Sim uArch: Shader 11 finished CTA #2 (20630,0), 7 CTAs running
GPGPU-Sim PTX: 8000000 instructions simulated : ctaid=(0,19,0) tid=(6,2,0)
GPGPU-Sim uArch: Shader 3 finished CTA #3 (20754,0), 7 CTAs running
GPGPU-Sim uArch: Shader 4 finished CTA #4 (20815,0), 7 CTAs running
GPGPU-Sim PTX: 8100000 instructions simulated : ctaid=(3,16,0) tid=(11,5,0)
GPGPU-Sim uArch: cycles simulated: 21000  inst.: 8157419 (ipc=388.4) sim_rate=906379 (inst/sec) elapsed = 0:0:00:09 / Wed Nov 16 02:55:06 2022
GPGPU-Sim PTX: 8200000 instructions simulated : ctaid=(0,19,0) tid=(6,5,0)
GPGPU-Sim PTX: 8300000 instructions simulated : ctaid=(4,19,0) tid=(7,2,0)
GPGPU-Sim PTX: 8400000 instructions simulated : ctaid=(5,18,0) tid=(3,1,0)
GPGPU-Sim uArch: Shader 2 finished CTA #4 (21451,0), 6 CTAs running
GPGPU-Sim uArch: Shader 11 finished CTA #3 (21458,0), 6 CTAs running
GPGPU-Sim PTX: 8500000 instructions simulated : ctaid=(5,20,0) tid=(8,0,0)
GPGPU-Sim PTX: 8600000 instructions simulated : ctaid=(5,17,0) tid=(5,3,0)
GPGPU-Sim uArch: Shader 1 finished CTA #3 (21789,0), 6 CTAs running
GPGPU-Sim uArch: Shader 5 finished CTA #4 (21794,0), 7 CTAs running
GPGPU-Sim PTX: 8700000 instructions simulated : ctaid=(5,24,0) tid=(12,7,0)
GPGPU-Sim PTX: 8800000 instructions simulated : ctaid=(3,24,0) tid=(7,2,0)
GPGPU-Sim PTX: 8900000 instructions simulated : ctaid=(5,16,0) tid=(5,11,0)
GPGPU-Sim uArch: Shader 12 finished CTA #4 (22185,0), 7 CTAs running
GPGPU-Sim PTX: 9000000 instructions simulated : ctaid=(2,23,0) tid=(2,4,0)
GPGPU-Sim uArch: Shader 10 finished CTA #4 (22316,0), 6 CTAs running
GPGPU-Sim uArch: Shader 1 finished CTA #6 (22351,0), 5 CTAs running
GPGPU-Sim uArch: Shader 7 finished CTA #3 (22367,0), 6 CTAs running
GPGPU-Sim uArch: Shader 2 finished CTA #5 (22368,0), 5 CTAs running
GPGPU-Sim PTX: 9100000 instructions simulated : ctaid=(2,20,0) tid=(5,9,0)
GPGPU-Sim uArch: Shader 8 finished CTA #3 (22508,0), 7 CTAs running
GPGPU-Sim uArch: Shader 9 finished CTA #3 (22524,0), 6 CTAs running
GPGPU-Sim PTX: 9200000 instructions simulated : ctaid=(2,21,0) tid=(12,11,0)
GPGPU-Sim uArch: Shader 5 finished CTA #5 (22742,0), 6 CTAs running
GPGPU-Sim uArch: Shader 1 finished CTA #4 (22746,0), 4 CTAs running
GPGPU-Sim PTX: 9300000 instructions simulated : ctaid=(1,18,0) tid=(9,1,0)
GPGPU-Sim uArch: Shader 13 finished CTA #4 (22833,0), 7 CTAs running
GPGPU-Sim PTX: 9400000 instructions simulated : ctaid=(1,21,0) tid=(2,2,0)
GPGPU-Sim uArch: Shader 0 finished CTA #4 (22968,0), 7 CTAs running
GPGPU-Sim uArch: Shader 3 finished CTA #4 (22984,0), 6 CTAs running
GPGPU-Sim uArch: cycles simulated: 23000  inst.: 9435235 (ipc=410.2) sim_rate=943523 (inst/sec) elapsed = 0:0:00:10 / Wed Nov 16 02:55:07 2022
GPGPU-Sim PTX: 9500000 instructions simulated : ctaid=(5,26,0) tid=(0,6,0)
GPGPU-Sim uArch: Shader 4 finished CTA #5 (23076,0), 6 CTAs running
GPGPU-Sim uArch: Shader 2 finished CTA #6 (23103,0), 4 CTAs running
GPGPU-Sim PTX: 9600000 instructions simulated : ctaid=(5,15,0) tid=(10,8,0)
GPGPU-Sim uArch: Shader 12 finished CTA #5 (23224,0), 6 CTAs running
GPGPU-Sim uArch: Shader 6 finished CTA #5 (23235,0), 6 CTAs running
GPGPU-Sim PTX: 9700000 instructions simulated : ctaid=(0,14,0) tid=(10,12,0)
GPGPU-Sim uArch: Shader 11 finished CTA #4 (23367,0), 5 CTAs running
GPGPU-Sim uArch: Shader 14 finished CTA #4 (23450,0), 7 CTAs running
GPGPU-Sim PTX: 9800000 instructions simulated : ctaid=(3,26,0) tid=(0,11,0)
GPGPU-Sim uArch: Shader 0 finished CTA #5 (23496,0), 6 CTAs running
GPGPU-Sim uArch: Shader 1 finished CTA #5 (23523,0), 3 CTAs running
GPGPU-Sim uArch: Shader 11 finished CTA #5 (23616,0), 4 CTAs running
GPGPU-Sim PTX: 9900000 instructions simulated : ctaid=(1,25,0) tid=(8,9,0)
GPGPU-Sim PTX: 10000000 instructions simulated : ctaid=(5,20,0) tid=(10,7,0)
GPGPU-Sim uArch: Shader 8 finished CTA #4 (23794,0), 6 CTAs running
GPGPU-Sim uArch: Shader 3 finished CTA #5 (23817,0), 5 CTAs running
GPGPU-Sim uArch: Shader 4 finished CTA #6 (23823,0), 5 CTAs running
GPGPU-Sim uArch: Shader 2 finished CTA #7 (23848,0), 3 CTAs running
GPGPU-Sim uArch: Shader 9 finished CTA #4 (23922,0), 5 CTAs running
GPGPU-Sim PTX: 10100000 instructions simulated : ctaid=(3,27,0) tid=(12,2,0)
GPGPU-Sim PTX: 10200000 instructions simulated : ctaid=(3,24,0) tid=(11,6,0)
GPGPU-Sim uArch: Shader 10 finished CTA #5 (24189,0), 5 CTAs running
GPGPU-Sim uArch: Shader 5 finished CTA #6 (24207,0), 5 CTAs running
GPGPU-Sim uArch: Shader 6 finished CTA #6 (24213,0), 5 CTAs running
GPGPU-Sim PTX: 10300000 instructions simulated : ctaid=(3,18,0) tid=(10,7,0)
GPGPU-Sim uArch: Shader 0 finished CTA #6 (24298,0), 5 CTAs running
GPGPU-Sim uArch: Shader 4 finished CTA #7 (24320,0), 4 CTAs running
GPGPU-Sim uArch: Shader 14 finished CTA #5 (24332,0), 6 CTAs running
GPGPU-Sim PTX: 10400000 instructions simulated : ctaid=(2,22,0) tid=(3,11,0)
GPGPU-Sim uArch: Shader 2 finished CTA #1 (24416,0), 2 CTAs running
GPGPU-Sim uArch: Shader 14 finished CTA #6 (24502,0), 5 CTAs running
GPGPU-Sim uArch: Shader 11 finished CTA #7 (24504,0), 3 CTAs running
GPGPU-Sim uArch: Shader 7 finished CTA #4 (24526,0), 5 CTAs running
GPGPU-Sim PTX: 10500000 instructions simulated : ctaid=(0,16,0) tid=(4,8,0)
GPGPU-Sim uArch: Shader 1 finished CTA #7 (24581,0), 2 CTAs running
GPGPU-Sim uArch: Shader 0 finished CTA #7 (24598,0), 4 CTAs running
GPGPU-Sim uArch: Shader 12 finished CTA #7 (24704,0), 5 CTAs running
GPGPU-Sim PTX: 10600000 instructions simulated : ctaid=(5,18,0) tid=(0,8,0)
GPGPU-Sim uArch: Shader 3 finished CTA #6 (24739,0), 4 CTAs running
GPGPU-Sim uArch: Shader 6 finished CTA #7 (24746,0), 4 CTAs running
GPGPU-Sim uArch: Shader 12 finished CTA #6 (24747,0), 4 CTAs running
GPGPU-Sim PTX: 10700000 instructions simulated : ctaid=(2,25,0) tid=(8,8,0)
GPGPU-Sim uArch: Shader 1 finished CTA #1 (24884,0), 1 CTAs running
GPGPU-Sim uArch: Shader 10 finished CTA #7 (24929,0), 4 CTAs running
GPGPU-Sim uArch: Shader 9 finished CTA #5 (24935,0), 4 CTAs running
GPGPU-Sim uArch: Shader 11 finished CTA #6 (24938,0), 2 CTAs running
GPGPU-Sim uArch: cycles simulated: 25000  inst.: 10730407 (ipc=429.2) sim_rate=975491 (inst/sec) elapsed = 0:0:00:11 / Wed Nov 16 02:55:08 2022
GPGPU-Sim PTX: 10800000 instructions simulated : ctaid=(3,25,0) tid=(10,6,0)
GPGPU-Sim uArch: Shader 13 finished CTA #5 (25107,0), 6 CTAs running
GPGPU-Sim uArch: Shader 10 finished CTA #6 (25116,0), 3 CTAs running
GPGPU-Sim uArch: Shader 4 finished CTA #0 (25131,0), 3 CTAs running
GPGPU-Sim uArch: Shader 7 finished CTA #5 (25235,0), 4 CTAs running
GPGPU-Sim PTX: 10900000 instructions simulated : ctaid=(5,18,0) tid=(0,8,0)
GPGPU-Sim uArch: Shader 5 finished CTA #7 (25343,0), 4 CTAs running
GPGPU-Sim uArch: Shader 9 finished CTA #6 (25381,0), 3 CTAs running
GPGPU-Sim PTX: 11000000 instructions simulated : ctaid=(3,18,0) tid=(8,12,0)
GPGPU-Sim uArch: Shader 14 finished CTA #7 (25487,0), 4 CTAs running
GPGPU-Sim uArch: Shader 0 finished CTA #2 (25523,0), 3 CTAs running
GPGPU-Sim uArch: Shader 8 finished CTA #6 (25590,0), 5 CTAs running
GPGPU-Sim PTX: 11100000 instructions simulated : ctaid=(5,22,0) tid=(10,2,0)
GPGPU-Sim uArch: Shader 3 finished CTA #7 (25654,0), 3 CTAs running
GPGPU-Sim uArch: Shader 12 finished CTA #0 (25655,0), 3 CTAs running
GPGPU-Sim uArch: Shader 3 finished CTA #1 (25694,0), 2 CTAs running
GPGPU-Sim uArch: Shader 5 finished CTA #0 (25697,0), 3 CTAs running
GPGPU-Sim uArch: Shader 4 finished CTA #1 (25702,0), 2 CTAs running
GPGPU-Sim uArch: Shader 10 finished CTA #0 (25771,0), 2 CTAs running
GPGPU-Sim uArch: Shader 13 finished CTA #6 (25776,0), 5 CTAs running
GPGPU-Sim PTX: 11200000 instructions simulated : ctaid=(4,21,0) tid=(11,12,0)
GPGPU-Sim uArch: Shader 7 finished CTA #6 (25868,0), 3 CTAs running
GPGPU-Sim uArch: Shader 2 finished CTA #0 (25913,0), 1 CTAs running
GPGPU-Sim uArch: Shader 14 finished CTA #0 (25940,0), 3 CTAs running
GPGPU-Sim uArch: Shader 1 finished CTA #0 (25980,0), 0 CTAs running
GPGPU-Sim uArch: Shader 1 empty (release kernel 1 '_Z17executeFirstLayerPfS_S_').
GPGPU-Sim uArch: Shader 9 finished CTA #7 (26101,0), 2 CTAs running
GPGPU-Sim PTX: 11300000 instructions simulated : ctaid=(2,27,0) tid=(0,6,0)
GPGPU-Sim uArch: Shader 13 finished CTA #7 (26124,0), 4 CTAs running
GPGPU-Sim uArch: Shader 11 finished CTA #0 (26142,0), 1 CTAs running
GPGPU-Sim uArch: Shader 12 finished CTA #2 (26345,0), 2 CTAs running
GPGPU-Sim uArch: Shader 6 finished CTA #0 (26348,0), 3 CTAs running
GPGPU-Sim uArch: Shader 8 finished CTA #5 (26359,0), 4 CTAs running
GPGPU-Sim uArch: Shader 7 finished CTA #7 (26386,0), 2 CTAs running
GPGPU-Sim PTX: 11400000 instructions simulated : ctaid=(4,27,0) tid=(9,12,0)
GPGPU-Sim uArch: Shader 4 finished CTA #3 (26482,0), 1 CTAs running
GPGPU-Sim uArch: Shader 5 finished CTA #1 (26537,0), 2 CTAs running
GPGPU-Sim uArch: Shader 0 finished CTA #0 (26600,0), 2 CTAs running
GPGPU-Sim uArch: Shader 2 finished CTA #2 (26724,0), 0 CTAs running
GPGPU-Sim uArch: Shader 2 empty (release kernel 1 '_Z17executeFirstLayerPfS_S_').
GPGPU-Sim PTX: 11500000 instructions simulated : ctaid=(1,22,0) tid=(9,2,0)
GPGPU-Sim uArch: Shader 3 finished CTA #0 (26825,0), 1 CTAs running
GPGPU-Sim uArch: Shader 8 finished CTA #7 (26884,0), 3 CTAs running
GPGPU-Sim uArch: Shader 10 finished CTA #1 (26900,0), 1 CTAs running
GPGPU-Sim uArch: Shader 14 finished CTA #1 (26931,0), 2 CTAs running
GPGPU-Sim uArch: Shader 9 finished CTA #1 (26984,0), 1 CTAs running
GPGPU-Sim uArch: Shader 6 finished CTA #1 (27003,0), 2 CTAs running
GPGPU-Sim uArch: Shader 11 finished CTA #1 (27021,0), 0 CTAs running
GPGPU-Sim uArch: Shader 11 empty (release kernel 1 '_Z17executeFirstLayerPfS_S_').
GPGPU-Sim uArch: Shader 12 finished CTA #3 (27090,0), 1 CTAs running
GPGPU-Sim uArch: Shader 13 finished CTA #0 (27130,0), 3 CTAs running
GPGPU-Sim uArch: Shader 7 finished CTA #1 (27154,0), 1 CTAs running
GPGPU-Sim PTX: 11600000 instructions simulated : ctaid=(3,26,0) tid=(3,9,0)
GPGPU-Sim uArch: Shader 8 finished CTA #1 (27295,0), 2 CTAs running
GPGPU-Sim uArch: Shader 5 finished CTA #3 (27383,0), 1 CTAs running
GPGPU-Sim uArch: Shader 0 finished CTA #1 (27515,0), 1 CTAs running
GPGPU-Sim uArch: Shader 10 finished CTA #3 (27625,0), 0 CTAs running
GPGPU-Sim uArch: Shader 10 empty (release kernel 1 '_Z17executeFirstLayerPfS_S_').
GPGPU-Sim uArch: Shader 4 finished CTA #2 (27748,0), 0 CTAs running
GPGPU-Sim uArch: Shader 4 empty (release kernel 1 '_Z17executeFirstLayerPfS_S_').
GPGPU-Sim uArch: Shader 3 finished CTA #2 (27778,0), 0 CTAs running
GPGPU-Sim uArch: Shader 3 empty (release kernel 1 '_Z17executeFirstLayerPfS_S_').
GPGPU-Sim uArch: Shader 13 finished CTA #2 (27911,0), 2 CTAs running
GPGPU-Sim uArch: cycles simulated: 28000  inst.: 11646677 (ipc=416.0) sim_rate=970556 (inst/sec) elapsed = 0:0:00:12 / Wed Nov 16 02:55:09 2022
GPGPU-Sim uArch: Shader 9 finished CTA #0 (28001,0), 0 CTAs running
GPGPU-Sim uArch: Shader 9 empty (release kernel 1 '_Z17executeFirstLayerPfS_S_').
GPGPU-Sim uArch: Shader 14 finished CTA #2 (28016,0), 1 CTAs running
GPGPU-Sim uArch: Shader 6 finished CTA #3 (28064,0), 1 CTAs running
GPGPU-Sim uArch: Shader 12 finished CTA #1 (28100,0), 0 CTAs running
GPGPU-Sim uArch: Shader 12 empty (release kernel 1 '_Z17executeFirstLayerPfS_S_').
GPGPU-Sim uArch: Shader 7 finished CTA #2 (28107,0), 0 CTAs running
GPGPU-Sim uArch: Shader 7 empty (release kernel 1 '_Z17executeFirstLayerPfS_S_').
GPGPU-Sim PTX: 11700000 instructions simulated : ctaid=(4,23,0) tid=(8,9,0)
GPGPU-Sim uArch: Shader 8 finished CTA #2 (28283,0), 1 CTAs running
GPGPU-Sim uArch: Shader 5 finished CTA #2 (28677,0), 0 CTAs running
GPGPU-Sim uArch: Shader 5 empty (release kernel 1 '_Z17executeFirstLayerPfS_S_').
GPGPU-Sim uArch: Shader 0 finished CTA #3 (28782,0), 0 CTAs running
GPGPU-Sim uArch: Shader 0 empty (release kernel 1 '_Z17executeFirstLayerPfS_S_').
GPGPU-Sim uArch: Shader 6 finished CTA #2 (29016,0), 0 CTAs running
GPGPU-Sim uArch: Shader 6 empty (release kernel 1 '_Z17executeFirstLayerPfS_S_').
GPGPU-Sim uArch: Shader 14 finished CTA #3 (29068,0), 0 CTAs running
GPGPU-Sim uArch: Shader 14 empty (release kernel 1 '_Z17executeFirstLayerPfS_S_').
GPGPU-Sim uArch: Shader 13 finished CTA #1 (29185,0), 1 CTAs running
GPGPU-Sim uArch: Shader 8 finished CTA #0 (29359,0), 0 CTAs running
GPGPU-Sim uArch: Shader 8 empty (release kernel 1 '_Z17executeFirstLayerPfS_S_').
GPGPU-Sim uArch: Shader 13 finished CTA #3 (30245,0), 0 CTAs running
GPGPU-Sim uArch: Shader 13 empty (release kernel 1 '_Z17executeFirstLayerPfS_S_').
GPGPU-Sim uArch: GPU detected kernel '_Z17executeFirstLayerPfS_S_' finished on shader 13.
kernel_name = _Z17executeFirstLayerPfS_S_ 
kernel_launch_uid = 1 
gpu_sim_cycle = 30246
gpu_sim_insn = 11694074
gpu_ipc =     386.6321
gpu_tot_sim_cycle = 30246
gpu_tot_sim_insn = 11694074
gpu_tot_ipc =     386.6321
gpu_tot_issued_cta = 0
repeat_cnt = 255723
gpu_stall_dramfull = 50703
gpu_stall_icnt2sh    = 166097
gpu_total_sim_rate=974506

========= Core cache stats =========
L1I_cache:
	L1I_total_cache_accesses = 244978
	L1I_total_cache_misses = 1098
	L1I_total_cache_miss_rate = 0.0045
	L1I_total_cache_pending_hits = 0
	L1I_total_cache_reservation_fails = 4140
L1D_cache:
	L1D_cache_core[0]: Access = 10195, Miss = 1632, Miss_rate = 0.160, Pending_hits = 436, Reservation_fails = 10626
	L1D_cache_core[1]: Access = 8558, Miss = 1657, Miss_rate = 0.194, Pending_hits = 260, Reservation_fails = 10506
	L1D_cache_core[2]: Access = 9395, Miss = 1685, Miss_rate = 0.179, Pending_hits = 245, Reservation_fails = 10082
	L1D_cache_core[3]: Access = 9353, Miss = 1962, Miss_rate = 0.210, Pending_hits = 281, Reservation_fails = 11307
	L1D_cache_core[4]: Access = 10260, Miss = 1807, Miss_rate = 0.176, Pending_hits = 326, Reservation_fails = 9416
	L1D_cache_core[5]: Access = 10272, Miss = 2058, Miss_rate = 0.200, Pending_hits = 261, Reservation_fails = 10965
	L1D_cache_core[6]: Access = 10239, Miss = 2074, Miss_rate = 0.203, Pending_hits = 394, Reservation_fails = 11268
	L1D_cache_core[7]: Access = 8500, Miss = 1672, Miss_rate = 0.197, Pending_hits = 503, Reservation_fails = 12872
	L1D_cache_core[8]: Access = 9384, Miss = 1771, Miss_rate = 0.189, Pending_hits = 495, Reservation_fails = 12523
	L1D_cache_core[9]: Access = 8522, Miss = 1698, Miss_rate = 0.199, Pending_hits = 481, Reservation_fails = 12647
	L1D_cache_core[10]: Access = 9378, Miss = 1653, Miss_rate = 0.176, Pending_hits = 362, Reservation_fails = 10900
	L1D_cache_core[11]: Access = 8518, Miss = 1620, Miss_rate = 0.190, Pending_hits = 303, Reservation_fails = 11628
	L1D_cache_core[12]: Access = 10212, Miss = 1701, Miss_rate = 0.167, Pending_hits = 304, Reservation_fails = 10243
	L1D_cache_core[13]: Access = 10209, Miss = 2024, Miss_rate = 0.198, Pending_hits = 428, Reservation_fails = 12248
	L1D_cache_core[14]: Access = 10207, Miss = 1851, Miss_rate = 0.181, Pending_hits = 428, Reservation_fails = 10817
	L1D_total_cache_accesses = 143202
	L1D_total_cache_misses = 26865
	L1D_total_cache_miss_rate = 0.1876
	L1D_total_cache_pending_hits = 5507
	L1D_total_cache_reservation_fails = 168048
	L1D_cache_data_port_util = 0.262
	L1D_cache_fill_port_util = 0.059
L1C_cache:
	L1C_total_cache_accesses = 28224
	L1C_total_cache_misses = 983
	L1C_total_cache_miss_rate = 0.0348
	L1C_total_cache_pending_hits = 0
	L1C_total_cache_reservation_fails = 5136
L1T_cache:
	L1T_total_cache_accesses = 0
	L1T_total_cache_misses = 0
	L1T_total_cache_pending_hits = 0
	L1T_total_cache_reservation_fails = 0

Total_core_cache_stats:
	Total_core_cache_stats_breakdown[GLOBAL_ACC_R][HIT] = 110830
	Total_core_cache_stats_breakdown[GLOBAL_ACC_R][HIT_RESERVED] = 5507
	Total_core_cache_stats_breakdown[GLOBAL_ACC_R][MISS] = 25005
	Total_core_cache_stats_breakdown[GLOBAL_ACC_R][RESERVATION_FAIL] = 166007
	Total_core_cache_stats_breakdown[CONST_ACC_R][HIT] = 27241
	Total_core_cache_stats_breakdown[CONST_ACC_R][MISS] = 983
	Total_core_cache_stats_breakdown[CONST_ACC_R][RESERVATION_FAIL] = 5136
	Total_core_cache_stats_breakdown[GLOBAL_ACC_W][MISS] = 1860
	Total_core_cache_stats_breakdown[GLOBAL_ACC_W][RESERVATION_FAIL] = 2041
	Total_core_cache_stats_breakdown[INST_ACC_R][HIT] = 243880
	Total_core_cache_stats_breakdown[INST_ACC_R][MISS] = 1098
	Total_core_cache_stats_breakdown[INST_ACC_R][RESERVATION_FAIL] = 4140
Shader 0 warp_id issue ditsribution:
warp_id:
0, 1, 2, 3, 4, 5, 6, 7, 8, 9, 10, 11, 12, 13, 14, 15, 16, 17, 18, 19, 20, 21, 22, 23, 24, 25, 26, 27, 28, 29, 30, 31, 32, 33, 34, 35, 36, 37, 38, 39, 40, 41, 42, 43, 44, 45, 46, 47, 
distro:
874, 874, 874, 874, 874, 816, 874, 874, 874, 874, 874, 816, 874, 874, 874, 874, 874, 845, 845, 874, 874, 845, 845, 874, 437, 437, 437, 437, 437, 437, 437, 437, 437, 437, 437, 408, 437, 437, 437, 437, 437, 437, 437, 437, 437, 437, 437, 408, 
gpgpu_n_tot_thrd_icount = 13976224
gpgpu_n_tot_w_icount = 436757
gpgpu_n_stall_shd_mem = 263970
gpgpu_n_mem_read_local = 0
gpgpu_n_mem_write_local = 0
gpgpu_n_mem_read_global = 25005
gpgpu_n_mem_write_global = 1860
gpgpu_n_mem_texture = 0
gpgpu_n_mem_const = 45
gpgpu_n_load_insn  = 1447992
gpgpu_n_store_insn = 28392
gpgpu_n_shmem_insn = 0
gpgpu_n_tex_insn = 0
gpgpu_n_const_mem_insn = 709800
gpgpu_n_param_mem_insn = 85176
gpgpu_n_shmem_bkconflict = 0
gpgpu_n_cache_bkconflict = 0
gpgpu_n_intrawarp_mshr_merge = 0
gpgpu_n_cmem_portconflict = 5136
gpgpu_stall_shd_mem[c_mem][bk_conf] = 5136
gpgpu_stall_shd_mem[c_mem][mshr_rc] = 0
gpgpu_stall_shd_mem[c_mem][icnt_rc] = 0
gpgpu_stall_shd_mem[c_mem][data_port_stall] = 0
gpgpu_stall_shd_mem[t_mem][mshr_rc] = 0
gpgpu_stall_shd_mem[t_mem][icnt_rc] = 0
gpgpu_stall_shd_mem[t_mem][data_port_stall] = 0
gpgpu_stall_shd_mem[s_mem][bk_conf] = 0
gpgpu_stall_shd_mem[gl_mem][bk_conf] = 0
gpgpu_stall_shd_mem[gl_mem][coal_stall] = 258834
gpgpu_stall_shd_mem[gl_mem][data_port_stall] = 0
gpgpu_stall_shd_mem[g_mem_ld][mshr_rc] = 0
gpgpu_stall_shd_mem[g_mem_ld][icnt_rc] = 0
gpgpu_stall_shd_mem[g_mem_ld][wb_icnt_rc] = 0
gpgpu_stall_shd_mem[g_mem_ld][wb_rsrv_fail] = 0
gpgpu_stall_shd_mem[g_mem_st][mshr_rc] = 0
gpgpu_stall_shd_mem[g_mem_st][icnt_rc] = 0
gpgpu_stall_shd_mem[g_mem_st][wb_icnt_rc] = 0
gpgpu_stall_shd_mem[g_mem_st][wb_rsrv_fail] = 0
gpgpu_stall_shd_mem[l_mem_ld][mshr_rc] = 0
gpgpu_stall_shd_mem[l_mem_ld][icnt_rc] = 0
gpgpu_stall_shd_mem[l_mem_ld][wb_icnt_rc] = 0
gpgpu_stall_shd_mem[l_mem_ld][wb_rsrv_fail] = 0
gpgpu_stall_shd_mem[l_mem_st][mshr_rc] = 0
gpgpu_stall_shd_mem[l_mem_st][icnt_rc] = 0
gpgpu_stall_shd_mem[l_mem_ld][wb_icnt_rc] = 0
gpgpu_stall_shd_mem[l_mem_ld][wb_rsrv_fail] = 0
gpu_reg_bank_conflict_stalls = 0
Warp Occupancy Distribution:
Stall:332906	W0_Idle:37324	W0_Scoreboard:37505	W1:1617	W2:1706	W3:1602	W4:1573	W5:1910	W6:2148	W7:2029	W8:1839	W9:69677	W10:1230	W11:880	W12:982	W13:1064	W14:1298	W15:978	W16:903	W17:828	W18:938	W19:914	W20:652	W21:625	W22:705	W23:1064	W24:1036	W25:1062	W26:1332	W27:1100	W28:1093	W29:981	W30:664	W31:754	W32:331573
traffic_breakdown_coretomem[CONST_ACC_R] = 360 {8:45,}
traffic_breakdown_coretomem[GLOBAL_ACC_R] = 200040 {8:25005,}
traffic_breakdown_coretomem[GLOBAL_ACC_W] = 172800 {40:499,72:504,136:857,}
traffic_breakdown_coretomem[INST_ACC_R] = 840 {8:105,}
traffic_breakdown_memtocore[CONST_ACC_R] = 3240 {72:45,}
traffic_breakdown_memtocore[GLOBAL_ACC_R] = 3400680 {136:25005,}
traffic_breakdown_memtocore[GLOBAL_ACC_W] = 14880 {8:1860,}
traffic_breakdown_memtocore[INST_ACC_R] = 14280 {136:105,}
maxmrqlatency = 57 
maxdqlatency = 0 
maxmflatency = 827 
averagemflatency = 284 
max_icnt2mem_latency = 499 
max_icnt2sh_latency = 30245 
mrq_lat_table:1525 	401 	137 	242 	228 	25 	0 	0 	0 	0 	0 	0 	0 	0 	0 	0 	0 	0 	0 	0 	0 	0 	0 	0 	0 	0 	0 	0 	0 	0 	0 	0 	
dq_lat_table:0 	0 	0 	0 	0 	0 	0 	0 	0 	0 	0 	0 	0 	0 	0 	0 	0 	0 	0 	0 	0 	0 	0 	0 	0 	0 	0 	0 	0 	0 	0 	0 	
mf_lat_table:0 	0 	0 	0 	0 	0 	0 	13202 	12465 	1243 	0 	0 	0 	0 	0 	0 	0 	0 	0 	0 	0 	0 	0 	0 	0 	0 	0 	0 	0 	0 	0 	0 	
icnt2mem_lat_table:0 	0 	0 	16305 	2659 	2153 	2738 	2578 	582 	0 	0 	0 	0 	0 	0 	0 	0 	0 	0 	0 	0 	0 	0 	0 	
icnt2sh_lat_table:0 	0 	0 	1796 	14046 	8704 	504 	0 	0 	0 	0 	0 	0 	465 	1395 	0 	0 	0 	0 	0 	0 	0 	0 	0 	
mf_lat_pw_table:0 	0 	0 	0 	0 	0 	0 	22 	37 	0 	0 	0 	0 	0 	0 	0 	0 	0 	0 	0 	0 	0 	0 	0 	0 	0 	0 	0 	0 	0 	0 	0 	
maximum concurrent accesses to same row:
dram[0]:         1         0         0         0         0         0         0         0         0         0         0         0         0         0         0         0 
dram[1]:         1         0         0         0         0         0         0         0         0         0         0         0         0         0         0         0 
dram[2]:         0         0         0         0         0         0         0         0         0         0         0         0         0         0         0         0 
dram[3]:         0         0         0         0         0         0         0         0         0         0         0         0         0         0         0         0 
dram[4]:         0         0         0         0         0         0         0         0         0         0         0         0         0         0         0         0 
dram[5]:         0         0         0         0         0         0         0         0         0         0         0         0         0         0         0         0 
maximum service time to same row:
dram[0]:       350         0         0         0      1532      1563      2006      2040      2662       841     11410     10297     20349     19799         0         0 
dram[1]:      2062         0         0         0      1551      1569      2057      1885      2835     10162     10700     12485     19940     19793         0         0 
dram[2]:      8069         0         0         0      1549      1543      2012      1988      2304     10228     10512     10394     21287     20281         0         0 
dram[3]:      9574         0         0         0      1546      1537      1793      1990      2241     10202     11321     12318     19757     20581         0         0 
dram[4]:         0         0         0         0      1541      1538      2063      1960       847     10113     10937     12362     19607     19921         0         0 
dram[5]:         0         0         0         0      1569      1534      2012      2056       851     10153     10534     11396     21329     20124         0         0 
average row accesses per activate:
dram[0]:  1.000000      -nan      -nan      -nan 10.000000 10.000000 32.000000 32.000000 45.000000 43.000000 65.000000 64.000000 61.000000 60.000000      -nan      -nan 
dram[1]:  3.000000      -nan      -nan      -nan 10.000000 10.000000 32.000000 32.000000 44.000000 48.000000 66.000000 66.000000 60.000000 57.000000      -nan      -nan 
dram[2]:  2.000000      -nan      -nan      -nan 10.000000 12.000000 32.000000 32.000000 45.000000 47.000000 64.000000 64.000000 60.000000 57.000000      -nan      -nan 
dram[3]:  1.000000      -nan      -nan      -nan 10.000000 12.000000 32.000000 32.000000 47.000000 46.000000 65.000000 64.000000 61.000000 57.000000      -nan      -nan 
dram[4]:      -nan      -nan      -nan      -nan 10.000000 12.000000 32.000000 32.000000 45.000000 49.000000 66.000000 64.000000 61.000000 56.000000      -nan      -nan 
dram[5]:      -nan      -nan      -nan      -nan 10.000000 12.000000 32.000000 32.000000 44.000000 47.000000 66.000000 65.000000 61.000000 57.000000      -nan      -nan 
average row locality = 2558/66 = 38.757576
number of total memory accesses made:
dram[0]:         0         0         0         0         0         0         0         0         0         0         0         0         0         0         0         0 
dram[1]:         0         0         0         0         0         0         0         0         0         0         0         0         0         0         0         0 
dram[2]:         0         0         0         0         0         0         0         0         0         0         0         0         0         0         0         0 
dram[3]:         0         0         0         0         0         0         0         0         0         0         0         0         0         0         0         0 
dram[4]:         0         0         0         0         0         0         0         0         0         0         0         0         0         0         0         0 
dram[5]:         0         0         0         0         0         0         0         0         0         0         0         0         0         0         0         0 
total accesses: 0
min_bank_accesses = 0!
min_chip_accesses = 0!
number of total read accesses:
dram[0]:         3         0         0         0        10        10        32        32        32        31        32        32        30        30         0         0 
dram[1]:         3         0         0         0        10        10        32        32        32        32        32        32        30        28         0         0 
dram[2]:         2         0         0         0        10        12        32        32        32        32        32        32        30        28         0         0 
dram[3]:         1         0         0         0        10        12        32        32        32        32        32        32        30        28         0         0 
dram[4]:         0         0         0         0        10        12        32        32        32        32        32        32        30        28         0         0 
dram[5]:         0         0         0         0        10        12        32        32        32        32        32        32        30        28         0         0 
total reads: 1638
min_bank_accesses = 0!
chip skew: 274/272 = 1.01
number of total write accesses:
dram[0]:         0         0         0         0         0         0         0         0        13        12        33        32        31        30         0         0 
dram[1]:         0         0         0         0         0         0         0         0        12        16        34        34        30        29         0         0 
dram[2]:         0         0         0         0         0         0         0         0        13        15        32        32        30        29         0         0 
dram[3]:         0         0         0         0         0         0         0         0        15        14        33        32        31        29         0         0 
dram[4]:         0         0         0         0         0         0         0         0        13        17        34        32        31        28         0         0 
dram[5]:         0         0         0         0         0         0         0         0        12        15        34        33        31        29         0         0 
total reads: 920
min_bank_accesses = 0!
chip skew: 155/151 = 1.03
average mf latency per bank:
dram[0]:       1300    none      none      none       20309      7691     16120     10877      2883      1949       327       256       221       213    none      none  
dram[1]:       3155    none      none      none       20245      5787     18980      8916      2414      1341       337       256       218       210    none      none  
dram[2]:          0    none      none      none       10011     10309     10506      7496      1986       935       333       227       211       210    none      none  
dram[3]:          0    none      none      none        8190      9646     12346      7113      2228       954       345       227       220       202    none      none  
dram[4]:     none      none      none      none       10115      9157     11315     13846      3456       932       274       271       214       205    none      none  
dram[5]:     none      none      none      none       11681      6909     17675     13659      3780      2024       353       378       216       204    none      none  
maximum mf latency per bank:
dram[0]:        278         0         0         0       675       611       775       554       757       417       658       405       485       392         0         0
dram[1]:        447         0         0         0       684       463       827       458       710       368       699       447       445       402         0         0
dram[2]:          0         0         0         0       594       552       626       574       656       460       566       496       307       295         0         0
dram[3]:          0         0         0         0       546       593       599       532       564       383       595       420       470       280         0         0
dram[4]:          0         0         0         0       632       573       652       638       633       531       483       466       363       293         0         0
dram[5]:          0         0         0         0       640       616       690       741       700       737       646       733       351       517         0         0

Number of Memory Banks Accessed per Memory Operation per Warp (from 0):
0	0	0	0	0	0	0	0	0	0	0	0	0	0	0	0	0	0	0	0	0	0	0	0	0	0	0	0	0	0	0	0	0	0	0	0	0	0	0	0	0	0	0	0	0	0	0	0	0	0	0	0	0	0	0	0	0	0	0	0	0	0	0	0	0	0	0	0	0	0	0	0	0	0	0	0	0	0	0	0	0	0	0	0	0	0	0	0	0	0	0	0	0	0	0	0	
Average # of Memory Banks Accessed per Memory Operation per Warp=-nan

position of mrq chosen
0	0	0	0	0	0	0	0	0	0	0	0	0	0	0	0	

average position of mrq chosen = -nan
Memory Partition 0: 
Cache L2_bank_000:
MSHR contents

Cache L2_bank_001:
MSHR contents

In Dram Latency Queue (total = 0): 
DRAM[0]: 16 bks, busW=4 BL=8 CL=12, tRRD=2 tCCD=6, tRCD=12 tRAS=28 tRP=12 tRC=40
n_cmd=39924 n_nop=39136 n_act=13 n_pre=2 n_req=425 n_rd=548 n_write=225 bw_util=0.03872
n_activity=5444 dram_eff=0.284
bk0: 6a 39850i bk1: 0a 39920i bk2: 0a 39926i bk3: 0a 39927i bk4: 20a 39866i bk5: 20a 39835i bk6: 64a 39764i bk7: 64a 39704i bk8: 64a 39582i bk9: 62a 39523i bk10: 64a 39238i bk11: 64a 39234i bk12: 60a 39283i bk13: 60a 39247i bk14: 0a 39920i bk15: 0a 39922i 
dram_util_bins: 0 0 0 0 0 0 0 0 0 0
dram_eff_bins: 0 0 0 0 0 0 0 0 0 0
mrqq: max=4 avg=0.0550546
Memory Partition 1: 
Cache L2_bank_002:
MSHR contents

Cache L2_bank_003:
MSHR contents

In Dram Latency Queue (total = 0): 
DRAM[1]: 16 bks, busW=4 BL=8 CL=12, tRRD=2 tCCD=6, tRCD=12 tRAS=28 tRP=12 tRC=40
n_cmd=39924 n_nop=39129 n_act=12 n_pre=1 n_req=428 n_rd=546 n_write=236 bw_util=0.03917
n_activity=5490 dram_eff=0.2849
bk0: 6a 39872i bk1: 0a 39921i bk2: 0a 39924i bk3: 0a 39927i bk4: 20a 39865i bk5: 20a 39861i bk6: 64a 39763i bk7: 64a 39747i bk8: 64a 39582i bk9: 64a 39566i bk10: 64a 39285i bk11: 64a 39234i bk12: 60a 39252i bk13: 56a 39295i bk14: 0a 39919i bk15: 0a 39921i 
dram_util_bins: 0 0 0 0 0 0 0 0 0 0
dram_eff_bins: 0 0 0 0 0 0 0 0 0 0
mrqq: max=4 avg=0.0414788
Memory Partition 2: 
Cache L2_bank_004:
MSHR contents

Cache L2_bank_005:
MSHR contents

In Dram Latency Queue (total = 0): 
DRAM[2]: 16 bks, busW=4 BL=8 CL=12, tRRD=2 tCCD=6, tRCD=12 tRAS=28 tRP=12 tRC=40
n_cmd=39924 n_nop=39140 n_act=11 n_pre=0 n_req=425 n_rd=548 n_write=225 bw_util=0.03872
n_activity=5383 dram_eff=0.2872
bk0: 4a 39903i bk1: 0a 39923i bk2: 0a 39924i bk3: 0a 39927i bk4: 20a 39863i bk5: 24a 39831i bk6: 64a 39744i bk7: 64a 39707i bk8: 64a 39534i bk9: 64a 39511i bk10: 64a 39234i bk11: 64a 39181i bk12: 60a 39294i bk13: 56a 39305i bk14: 0a 39922i bk15: 0a 39922i 
dram_util_bins: 0 0 0 0 0 0 0 0 0 0
dram_eff_bins: 0 0 0 0 0 0 0 0 0 0
mrqq: max=4 avg=0.0528254
Memory Partition 3: 
Cache L2_bank_006:
MSHR contents

Cache L2_bank_007:
MSHR contents

In Dram Latency Queue (total = 0): 
DRAM[3]: 16 bks, busW=4 BL=8 CL=12, tRRD=2 tCCD=6, tRCD=12 tRAS=28 tRP=12 tRC=40
n_cmd=39924 n_nop=39132 n_act=11 n_pre=0 n_req=427 n_rd=546 n_write=235 bw_util=0.03912
n_activity=5453 dram_eff=0.2864
bk0: 2a 39906i bk1: 0a 39922i bk2: 0a 39925i bk3: 0a 39926i bk4: 20a 39863i bk5: 24a 39859i bk6: 64a 39757i bk7: 64a 39736i bk8: 64a 39526i bk9: 64a 39572i bk10: 64a 39138i bk11: 64a 39238i bk12: 60a 39297i bk13: 56a 39337i bk14: 0a 39919i bk15: 0a 39921i 
dram_util_bins: 0 0 0 0 0 0 0 0 0 0
dram_eff_bins: 0 0 0 0 0 0 0 0 0 0
mrqq: max=6 avg=0.0646228
Memory Partition 4: 
Cache L2_bank_008:
MSHR contents

Cache L2_bank_009:
MSHR contents

In Dram Latency Queue (total = 0): 
DRAM[4]: 16 bks, busW=4 BL=8 CL=12, tRRD=2 tCCD=6, tRCD=12 tRAS=28 tRP=12 tRC=40
n_cmd=39924 n_nop=39143 n_act=10 n_pre=0 n_req=427 n_rd=544 n_write=227 bw_util=0.03862
n_activity=5449 dram_eff=0.283
bk0: 0a 39921i bk1: 0a 39925i bk2: 0a 39925i bk3: 0a 39928i bk4: 20a 39870i bk5: 24a 39840i bk6: 64a 39746i bk7: 64a 39755i bk8: 64a 39569i bk9: 64a 39479i bk10: 64a 39201i bk11: 64a 39224i bk12: 60a 39242i bk13: 56a 39350i bk14: 0a 39919i bk15: 0a 39920i 
dram_util_bins: 0 0 0 0 0 0 0 0 0 0
dram_eff_bins: 0 0 0 0 0 0 0 0 0 0
mrqq: max=4 avg=0.0496193
Memory Partition 5: 
Cache L2_bank_010:
MSHR contents

Cache L2_bank_011:
MSHR contents

In Dram Latency Queue (total = 0): 
DRAM[5]: 16 bks, busW=4 BL=8 CL=12, tRRD=2 tCCD=6, tRCD=12 tRAS=28 tRP=12 tRC=40
n_cmd=39924 n_nop=39132 n_act=10 n_pre=0 n_req=426 n_rd=544 n_write=238 bw_util=0.03917
n_activity=5608 dram_eff=0.2789
bk0: 0a 39922i bk1: 0a 39926i bk2: 0a 39927i bk3: 0a 39928i bk4: 20a 39864i bk5: 24a 39853i bk6: 64a 39775i bk7: 64a 39755i bk8: 64a 39585i bk9: 64a 39530i bk10: 64a 39277i bk11: 64a 39176i bk12: 60a 39285i bk13: 56a 39358i bk14: 0a 39920i bk15: 0a 39920i 
dram_util_bins: 0 0 0 0 0 0 0 0 0 0
dram_eff_bins: 0 0 0 0 0 0 0 0 0 0
mrqq: max=4 avg=0.0471145

========= L2 cache stats =========
L2_cache_bank[0]: Access = 2518, Miss = 139, Miss_rate = 0.055, Pending_hits = 83, Reservation_fails = 920
L2_cache_bank[1]: Access = 2291, Miss = 135, Miss_rate = 0.059, Pending_hits = 54, Reservation_fails = 720
L2_cache_bank[2]: Access = 2529, Miss = 139, Miss_rate = 0.055, Pending_hits = 66, Reservation_fails = 818
[...]
traffic_breakdown_coretomem[CONST_ACC_R] = 600 {8:75,}
traffic_breakdown_coretomem[GLOBAL_ACC_R] = 1472192 {8:184024,}
traffic_breakdown_coretomem[GLOBAL_ACC_W] = 517200 {40:4279,72:1204,136:1907,}
traffic_breakdown_coretomem[INST_ACC_R] = 3000 {8:375,}
traffic_breakdown_memtocore[CONST_ACC_R] = 5400 {72:75,}
traffic_breakdown_memtocore[GLOBAL_ACC_R] = 25027264 {136:184024,}
traffic_breakdown_memtocore[GLOBAL_ACC_W] = 59120 {8:7390,}
traffic_breakdown_memtocore[INST_ACC_R] = 51000 {136:375,}
maxmrqlatency = 111 
maxdqlatency = 0 
maxmflatency = 827 
averagemflatency = 167 
max_icnt2mem_latency = 499 
max_icnt2sh_latency = 2151043 
mrq_lat_table:7348 	794 	230 	521 	520 	87 	24 	0 	0 	0 	0 	0 	0 	0 	0 	0 	0 	0 	0 	0 	0 	0 	0 	0 	0 	0 	0 	0 	0 	0 	0 	0 	
dq_lat_table:0 	0 	0 	0 	0 	0 	0 	0 	0 	0 	0 	0 	0 	0 	0 	0 	0 	0 	0 	0 	0 	0 	0 	0 	0 	0 	0 	0 	0 	0 	0 	0 	
mf_lat_table:0 	0 	0 	0 	0 	0 	0 	172562 	17683 	1244 	0 	0 	0 	0 	0 	0 	0 	0 	0 	0 	0 	0 	0 	0 	0 	0 	0 	0 	0 	0 	0 	0 	
icnt2mem_lat_table:0 	0 	0 	180351 	3280 	2288 	2766 	2597 	582 	0 	0 	0 	0 	0 	0 	0 	0 	0 	0 	0 	0 	0 	0 	0 	
icnt2sh_lat_table:0 	0 	0 	149919 	24043 	9621 	516 	0 	0 	0 	0 	0 	0 	465 	1395 	747 	1703 	120 	360 	770 	1504 	326 	0 	0 	
mf_lat_pw_table:0 	0 	0 	0 	0 	0 	0 	4259 	43 	0 	0 	0 	0 	0 	0 	0 	0 	0 	0 	0 	0 	0 	0 	0 	0 	0 	0 	0 	0 	0 	0 	0 	
maximum concurrent accesses to same row:
dram[0]:        67        66        72        65        31        26        32        32        45        43        65        64        63        62        47        49 
dram[1]:        66        68        67        67        32        27        32        32        44        48        66        66        62        61        47        48 
dram[2]:        69        69        69        69        32        28        32        32        45        47        64        64        62        61        53        47 
dram[3]:        70        70        66        69        29        26        32        32        47        46        65        64        63        61        50        51 
dram[4]:        71        68        71        67        29        27        32        32        45        49        66        64        63        60        48        50 
dram[5]:        70        66        68        71        27        27        32        32        44        47        66        65        63        61        49        51 
maximum service time to same row:
dram[0]:     18974     13201     53682     54832     85000     85409      4822      4885    509225    665951     11410     10297     20349     19799       282       288 
dram[1]:     19475    249444     53716     54829     85312     85463      4737      4809    507595    519875     10700     12485     19940    319746       288       285 
dram[2]:     12066     83325     53807     55093     85566     86297      4859      6656    502956    745326     10512     10394     21287    324200      1502       438 
dram[3]:     10282    243598     53769     55090     86000     86297      4981      6650   1079071    556410     11321     12318     19757    327681       285       285 
dram[4]:     19113     23496     54275     54879     86062     87880      4897      6548    512629    563172     10937     12362     19607     19921       285       285 
dram[5]:     12331     24999     54032     55010     86110     87213      4868      4930    514416    550571     10534     11396     21329     20124      1144       304 
average row accesses per activate:
dram[0]: 17.166666 33.333332 52.000000 48.500000  3.370370  2.933333  2.526316  2.461539  2.782609  3.068182 48.500000 48.000000 32.000000 47.000000 39.500000 40.500000 
dram[1]: 25.500000 10.600000 49.500000 49.500000  3.407408  2.838710  2.526316  2.594594  2.659575  3.307692 49.000000 49.000000 47.000000 31.666666 39.500000 40.000000 
dram[2]: 34.333332 26.500000 50.500000 50.500000  3.500000  2.967742  2.594594  2.909091  2.954545  3.324324 48.000000 48.000000 47.000000 31.666666 42.500000 39.500000 
dram[3]: 34.666668 13.500000 49.000000 50.500000  3.296296  3.000000  2.666667  2.909091  3.783784  2.863636 48.500000 48.000000 47.500000 31.666666 41.000000 41.500000 
dram[4]: 35.000000 34.000000 51.500000 49.500000  3.103448  3.000000  2.594594  2.742857  3.232558  3.095238 49.000000 48.000000 47.500000 31.333334 40.000000 41.000000 
dram[5]: 34.666668 33.333332 50.000000 51.500000  3.034483  3.214286  2.594594  2.666667  3.022222  3.170732 49.000000 48.500000 47.500000 31.666666 40.500000 41.500000 
average row locality = 9524/1445 = 6.591003
number of total memory accesses made:
dram[0]:         0         0         0         0         0         0         0         0         0         0         0         0         0         0         0         0 
dram[1]:         0         0         0         0         0         0         0         0         0         0         0         0         0         0         0         0 
dram[2]:         0         0         0         0         0         0         0         0         0         0         0         0         0         0         0         0 
dram[3]:         0         0         0         0         0         0         0         0         0         0         0         0         0         0         0         0 
dram[4]:         0         0         0         0         0         0         0         0         0         0         0         0         0         0         0         0 
dram[5]:         0         0         0         0         0         0         0         0         0         0         0         0         0         0         0         0 
total accesses: 0
min_bank_accesses = 0!
min_chip_accesses = 0!
number of total read accesses:
dram[0]:        68        66        64        64        74        74        96        96        94        93        64        64        64        64        64        64 
dram[1]:        68        68        64        64        74        74        96        96        94        93        64        64        64        64        64        64 
dram[2]:        66        68        64        64        74        76        96        96        94        92        64        64        64        64        64        64 
dram[3]:        66        68        64        64        74        76        96        96        94        92        64        64        64        64        64        64 
dram[4]:        66        66        64        64        74        76        96        96        94        92        64        64        64        64        64        64 
dram[5]:        66        66        64        64        74        76        96        96        94        92        64        64        64        64        64        64 
total reads: 7040
bank skew: 96/64 = 1.50
chip skew: 1175/1172 = 1.00
number of total write accesses:
dram[0]:        35        34        40        33        17        14         0         0        34        42        33        32        32        30        15        17 
dram[1]:        34        38        35        35        18        14         0         0        31        36        34        34        30        31        15        16 
dram[2]:        37        38        37        37        17        16         0         0        36        31        32        32        30        31        21        15 
dram[3]:        38        40        34        37        15        14         0         0        46        34        33        32        31        31        18        19 
dram[4]:        39        36        39        35        16        14         0         0        45        38        34        32        31        30        16        18 
dram[5]:        38        34        36        39        14        14         0         0        42        38        34        33        31        31        17        19 
total reads: 2484
min_bank_accesses = 0!
chip skew: 423/401 = 1.05
average mf latency per bank:
dram[0]:       2383      2420      2379      2558      5076      3881      8139      6431      3519      2929      2334      2414      2427      2404      3480      3363
dram[1]:       2469      2250      2560      2506      5063      3672      9129      5763      3228      3063      2388      2364      2468      2520      3363      3531
dram[2]:       2362      2288      2507      2490      3925      4164      6265      5303      3021      2946      2443      2407      2494      2488      3131      3425
dram[3]:       2332      2234      2524      2458      3810      4186      6924      5224      3063      2760      2462      2349      2381      2487      3425      3178
dram[4]:       2314      2338      2440      2554      4023      4151      6545      7408      3539      2664      2371      2382      2486      2494      3364      3349
dram[5]:       2324      2419      2539      2418      4334      3839      8688      7371      3522      3033      2324      2486      2418      2458      3410      3216
maximum mf latency per bank:
dram[0]:        289       325       280       278       675       611       775       554       757       417       658       405       485       392       355       343
dram[1]:        447       487       325       457       684       497       827       511       710       513       699       447       445       483       355       487
dram[2]:        343       289       325       302       594       552       626       574       656       460       566       496       345       295       323       378
dram[3]:        337       312       287       284       546       593       599       532       564       383       595       420       470       282       369       393
dram[4]:        277       277       361       325       632       573       652       638       633       531       483       466       363       345       330       402
dram[5]:        295       325       331       313       640       616       690       741       700       737       646       733       369       517       358       362

Number of Memory Banks Accessed per Memory Operation per Warp (from 0):
0	0	0	0	0	0	0	0	0	0	0	0	0	0	0	0	0	0	0	0	0	0	0	0	0	0	0	0	0	0	0	0	0	0	0	0	0	0	0	0	0	0	0	0	0	0	0	0	0	0	0	0	0	0	0	0	0	0	0	0	0	0	0	0	0	0	0	0	0	0	0	0	0	0	0	0	0	0	0	0	0	0	0	0	0	0	0	0	0	0	0	0	0	0	0	0	
Average # of Memory Banks Accessed per Memory Operation per Warp=-nan

position of mrq chosen
0	0	0	0	0	0	0	0	0	0	0	0	0	0	0	0	

average position of mrq chosen = -nan
Memory Partition 0: 
Cache L2_bank_000:
MSHR contents

Cache L2_bank_001:
MSHR contents

In Dram Latency Queue (total = 0): 
DRAM[0]: 16 bks, busW=4 BL=8 CL=12, tRRD=2 tCCD=6, tRCD=12 tRAS=28 tRP=12 tRC=40
n_cmd=2839375 n_nop=2835959 n_act=250 n_pre=234 n_req=1581 n_rd=2346 n_write=586 bw_util=0.002065
n_activity=28413 dram_eff=0.2064
bk0: 136a 2838575i bk1: 132a 2838638i bk2: 128a 2838661i bk3: 128a 2838723i bk4: 148a 2838288i bk5: 148a 2838170i bk6: 192a 2838029i bk7: 192a 2837896i bk8: 188a 2837449i bk9: 186a 2837323i bk10: 128a 2838404i bk11: 128a 2838442i bk12: 128a 2838466i bk13: 128a 2838508i bk14: 128a 2838793i bk15: 128a 2838827i 
dram_util_bins: 0 0 0 0 0 0 0 0 0 0
dram_eff_bins: 0 0 0 0 0 0 0 0 0 0
mrqq: max=5 avg=0.00169439
Memory Partition 1: 
Cache L2_bank_002:
MSHR contents

Cache L2_bank_003:
MSHR contents

In Dram Latency Queue (total = 0): 
DRAM[1]: 16 bks, busW=4 BL=8 CL=12, tRRD=2 tCCD=6, tRCD=12 tRAS=28 tRP=12 tRC=40
n_cmd=2839375 n_nop=2835950 n_act=251 n_pre=235 n_req=1576 n_rd=2350 n_write=589 bw_util=0.00207
n_activity=28474 dram_eff=0.2064
bk0: 136a 2838551i bk1: 136a 2838469i bk2: 128a 2838717i bk3: 128a 2838683i bk4: 148a 2838227i bk5: 148a 2838171i bk6: 192a 2838047i bk7: 192a 2837982i bk8: 188a 2837458i bk9: 186a 2837593i bk10: 128a 2838460i bk11: 128a 2838447i bk12: 128a 2838494i bk13: 128a 2838482i bk14: 128a 2838817i bk15: 128a 2838779i 
dram_util_bins: 0 0 0 0 0 0 0 0 0 0
dram_eff_bins: 0 0 0 0 0 0 0 0 0 0
mrqq: max=5 avg=0.00150209
Memory Partition 2: 
Cache L2_bank_004:
MSHR contents

Cache L2_bank_005:
MSHR contents

In Dram Latency Queue (total = 0): 
DRAM[2]: 16 bks, busW=4 BL=8 CL=12, tRRD=2 tCCD=6, tRCD=12 tRAS=28 tRP=12 tRC=40
n_cmd=2839375 n_nop=2835989 n_act=232 n_pre=216 n_req=1584 n_rd=2348 n_write=590 bw_util=0.002069
n_activity=28067 dram_eff=0.2094
bk0: 132a 2838608i bk1: 136a 2838639i bk2: 128a 2838673i bk3: 128a 2838675i bk4: 148a 2838324i bk5: 152a 2838147i bk6: 192a 2838034i bk7: 192a 2838031i bk8: 188a 2837429i bk9: 184a 2837615i bk10: 128a 2838399i bk11: 128a 2838380i bk12: 128a 2838506i bk13: 128a 2838520i bk14: 128a 2838830i bk15: 128a 2838826i 
dram_util_bins: 0 0 0 0 0 0 0 0 0 0
dram_eff_bins: 0 0 0 0 0 0 0 0 0 0
mrqq: max=6 avg=0.0015271
Memory Partition 3: 
Cache L2_bank_006:
MSHR contents

Cache L2_bank_007:
MSHR contents

In Dram Latency Queue (total = 0): 
DRAM[3]: 16 bks, busW=4 BL=8 CL=12, tRRD=2 tCCD=6, tRCD=12 tRAS=28 tRP=12 tRC=40
n_cmd=2839375 n_nop=2835953 n_act=235 n_pre=219 n_req=1596 n_rd=2348 n_write=620 bw_util=0.002091
n_activity=28383 dram_eff=0.2091
bk0: 132a 2838598i bk1: 136a 2838452i bk2: 128a 2838684i bk3: 128a 2838701i bk4: 148a 2838274i bk5: 152a 2838185i bk6: 192a 2838058i bk7: 192a 2838079i bk8: 188a 2837551i bk9: 184a 2837492i bk10: 128a 2838317i bk11: 128a 2838453i bk12: 128a 2838534i bk13: 128a 2838534i bk14: 128a 2838729i bk15: 128a 2838676i 
dram_util_bins: 0 0 0 0 0 0 0 0 0 0
dram_eff_bins: 0 0 0 0 0 0 0 0 0 0
mrqq: max=15 avg=0.00244314
Memory Partition 4: 
Cache L2_bank_008:
MSHR contents

Cache L2_bank_009:
MSHR contents

In Dram Latency Queue (total = 0): 
DRAM[4]: 16 bks, busW=4 BL=8 CL=12, tRRD=2 tCCD=6, tRCD=12 tRAS=28 tRP=12 tRC=40
n_cmd=2839375 n_nop=2835968 n_act=239 n_pre=223 n_req=1595 n_rd=2344 n_write=601 bw_util=0.002074
n_activity=28507 dram_eff=0.2066
bk0: 132a 2838624i bk1: 132a 2838628i bk2: 128a 2838687i bk3: 128a 2838673i bk4: 148a 2838247i bk5: 152a 2838158i bk6: 192a 2838052i bk7: 192a 2838082i bk8: 188a 2837425i bk9: 184a 2837464i bk10: 128a 2838358i bk11: 128a 2838432i bk12: 128a 2838480i bk13: 128a 2838541i bk14: 128a 2838788i bk15: 128a 2838710i 
dram_util_bins: 0 0 0 0 0 0 0 0 0 0
dram_eff_bins: 0 0 0 0 0 0 0 0 0 0
mrqq: max=13 avg=0.00202333
Memory Partition 5: 
Cache L2_bank_010:
MSHR contents

Cache L2_bank_011:
MSHR contents

In Dram Latency Queue (total = 0): 
DRAM[5]: 16 bks, busW=4 BL=8 CL=12, tRRD=2 tCCD=6, tRCD=12 tRAS=28 tRP=12 tRC=40
n_cmd=2839375 n_nop=2835950 n_act=239 n_pre=223 n_req=1592 n_rd=2344 n_write=619 bw_util=0.002087
n_activity=28482 dram_eff=0.2081
bk0: 132a 2838603i bk1: 132a 2838685i bk2: 128a 2838629i bk3: 128a 2838681i bk4: 148a 2838280i bk5: 152a 2838245i bk6: 192a 2838073i bk7: 192a 2838021i bk8: 188a 2837428i bk9: 184a 2837459i bk10: 128a 2838409i bk11: 128a 2838376i bk12: 128a 2838500i bk13: 128a 2838561i bk14: 128a 2838773i bk15: 128a 2838766i 
dram_util_bins: 0 0 0 0 0 0 0 0 0 0
dram_eff_bins: 0 0 0 0 0 0 0 0 0 0
mrqq: max=12 avg=0.00191944

========= L2 cache stats =========
L2_cache_bank[0]: Access = 16213, Miss = 588, Miss_rate = 0.036, Pending_hits = 142, Reservation_fails = 953
L2_cache_bank[1]: Access = 16048, Miss = 585, Miss_rate = 0.036, Pending_hits = 101, Reservation_fails = 965
L2_cache_bank[2]: Access = 16113, Miss = 588, Miss_rate = 0.036, Pending_hits = 113, Reservation_fails = 927
L2_cache_bank[3]: Access = 16016, Miss = 587, Miss_rate = 0.037, Pending_hits = 109, Reservation_fails = 509
L2_cache_bank[4]: Access = 15788, Miss = 586, Miss_rate = 0.037, Pending_hits = 128, Reservation_fails = 646
L2_cache_bank[5]: Access = 15797, Miss = 588, Miss_rate = 0.037, Pending_hits = 100, Reservation_fails = 662
L2_cache_bank[6]: Access = 16027, Miss = 586, Miss_rate = 0.037, Pending_hits = 123, Reservation_fails = 697
L2_cache_bank[7]: Access = 15536, Miss = 588, Miss_rate = 0.038, Pending_hits = 108, Reservation_fails = 624
L2_cache_bank[8]: Access = 16236, Miss = 586, Miss_rate = 0.036, Pending_hits = 126, Reservation_fails = 878
L2_cache_bank[9]: Access = 15987, Miss = 586, Miss_rate = 0.037, Pending_hits = 102, Reservation_fails = 580
L2_cache_bank[10]: Access = 16247, Miss = 586, Miss_rate = 0.036, Pending_hits = 119, Reservation_fails = 604
L2_cache_bank[11]: Access = 15856, Miss = 586, Miss_rate = 0.037, Pending_hits = 99, Reservation_fails = 585
L2_total_cache_accesses = 191864
L2_total_cache_misses = 7040
L2_total_cache_miss_rate = 0.0367
L2_total_cache_pending_hits = 1370
L2_total_cache_reservation_fails = 8630
L2_total_cache_breakdown:
	L2_cache_stats_breakdown[GLOBAL_ACC_R][HIT] = 178061
	L2_cache_stats_breakdown[GLOBAL_ACC_R][HIT_RESERVED] = 1030
	L2_cache_stats_breakdown[GLOBAL_ACC_R][MISS] = 4933
	L2_cache_stats_breakdown[GLOBAL_ACC_R][RESERVATION_FAIL] = 6769
	L2_cache_stats_breakdown[CONST_ACC_R][HIT] = 63
	L2_cache_stats_breakdown[CONST_ACC_R][HIT_RESERVED] = 9
	L2_cache_stats_breakdown[CONST_ACC_R][MISS] = 3
	L2_cache_stats_breakdown[CONST_ACC_R][RESERVATION_FAIL] = 322
	L2_cache_stats_breakdown[GLOBAL_ACC_W][HIT] = 5027
	L2_cache_stats_breakdown[GLOBAL_ACC_W][HIT_RESERVED] = 284
	L2_cache_stats_breakdown[GLOBAL_ACC_W][MISS] = 2079
	L2_cache_stats_breakdown[GLOBAL_ACC_W][RESERVATION_FAIL] = 602
	L2_cache_stats_breakdown[INST_ACC_R][HIT] = 303
	L2_cache_stats_breakdown[INST_ACC_R][HIT_RESERVED] = 47
	L2_cache_stats_breakdown[INST_ACC_R][MISS] = 25
	L2_cache_stats_breakdown[INST_ACC_R][RESERVATION_FAIL] = 937
L2_cache_data_port_util = 0.028
L2_cache_fill_port_util = 0.001

icnt_total_pkts_mem_to_simt=929610
icnt_total_pkts_simt_to_mem=206179
LD_mem_lat_dist  0 0 0 0 0 0 0 0 0 0 0 0 0 0 0 0 0 0 0 0 0 0 0 0 0 0 0
ST_mem_lat_dist  0 0 0 0 0 0 0 0 0 0 0 0 0 0 0 0 0 0 0 0 0 0 0 0 0 0 0
----------------------------Interconnect-DETAILS--------------------------------
Class 0:
Packet latency average = 11.238
	minimum = 6
	maximum = 182
Network latency average = 10.1756
	minimum = 6
	maximum = 171
Slowest packet = 382018
Flit latency average = 8.22869
	minimum = 6
	maximum = 170
Slowest flit = 1131391
Fragmentation average = 0
	minimum = 0
	maximum = 0
Injected packet rate average = 0.00512209
	minimum = 0.00417583 (at node 11)
	maximum = 0.00781285 (at node 16)
Accepted packet rate average = 0.00512209
	minimum = 0.00417583 (at node 11)
	maximum = 0.00781285 (at node 16)
Injected flit rate average = 0.0139693
	minimum = 0.00493916 (at node 11)
	maximum = 0.0298595 (at node 26)
Accepted flit rate average= 0.0139693
	minimum = 0.00422074 (at node 19)
	maximum = 0.0226303 (at node 10)
Injected packet length average = 2.72727
Accepted packet length average = 2.72727
Total in-flight flits = 0 (0 measured)
====== Overall Traffic Statistics ======
====== Traffic class 0 ======
Packet latency average = 13.9272 (4 samples)
	minimum = 6 (4 samples)
	maximum = 181.25 (4 samples)
Network latency average = 12.1836 (4 samples)
	minimum = 6 (4 samples)
	maximum = 150.75 (4 samples)
Flit latency average = 9.80862 (4 samples)
	minimum = 6 (4 samples)
	maximum = 149.5 (4 samples)
Fragmentation average = 0.00812512 (4 samples)
	minimum = 0 (4 samples)
	maximum = 67.25 (4 samples)
Injected packet rate average = 0.0239972 (4 samples)
	minimum = 0.019625 (4 samples)
	maximum = 0.030235 (4 samples)
Accepted packet rate average = 0.0239972 (4 samples)
	minimum = 0.019625 (4 samples)
	maximum = 0.030235 (4 samples)
Injected flit rate average = 0.0704746 (4 samples)
	minimum = 0.023382 (4 samples)
	maximum = 0.141371 (4 samples)
Accepted flit rate average = 0.0704746 (4 samples)
	minimum = 0.0277982 (4 samples)
	maximum = 0.116837 (4 samples)
Injected packet size average = 2.93679 (4 samples)
Accepted packet size average = 2.93679 (4 samples)
Hops average = 1 (4 samples)
----------------------------END-of-Interconnect-DETAILS-------------------------


gpgpu_simulation_time = 0 days, 0 hrs, 6 min, 32 sec (392 sec)
gpgpu_simulation_rate = 199874 (inst/sec)
gpgpu_simulation_rate = 5487 (cycle/sec)
7 2 1 0 4 1 4 9 6 9 0 6 9 0 1 5 9 7 3 4 9 6 6 5 4 0 7 4
