

        *** GPGPU-Sim Simulator Version 3.2.2  [build 0] ***


GPGPU-Sim PTX: simulation mode 0 (can change with PTX_SIM_MODE_FUNC environment variable:
               1=functional simulation only, 0=detailed performance simulator)
GPGPU-Sim: Configuration options:

-network_mode                           1 # Interconnection network mode
-inter_config_file   config_fermi_islip.icnt # Interconnection network config file
-gpgpu_ptx_use_cuobjdump                    1 # Use cuobjdump to extract ptx and sass from binaries
-gpgpu_experimental_lib_support                    0 # Try to extract code from cuda libraries [Broken because of unknown cudaGetExportTable]
-gpgpu_ptx_convert_to_ptxplus                    0 # Convert SASS (native ISA) to ptxplus and run ptxplus
-gpgpu_ptx_force_max_capability                   20 # Force maximum compute capability
-gpgpu_ptx_inst_debug_to_file                    0 # Dump executed instructions' debug information to file
-gpgpu_ptx_inst_debug_file       inst_debug.txt # Executed instructions' debug output file
-gpgpu_ptx_inst_debug_thread_uid                    1 # Thread UID for executed instructions' debug output
-gpgpu_simd_model                       1 # 1 = post-dominator
-gpgpu_shader_core_pipeline              1536:32 # shader core pipeline config, i.e., {<nthread>:<warpsize>}
-gpgpu_tex_cache:l1  4:128:24,L:R:m:N:L,F:128:4,128:2 # per-shader L1 texture cache  (READ-ONLY) config  {<nsets>:<bsize>:<assoc>,<rep>:<wr>:<alloc>:<wr_alloc>,<mshr>:<N>:<merge>,<mq>:<rf>}
-gpgpu_const_cache:l1 64:64:2,L:R:f:N:L,A:2:32,4 # per-shader L1 constant memory cache  (READ-ONLY) config  {<nsets>:<bsize>:<assoc>,<rep>:<wr>:<alloc>:<wr_alloc>,<mshr>:<N>:<merge>,<mq>} 
-gpgpu_cache:il1     4:128:4,L:R:f:N:L,A:2:32,4 # shader L1 instruction cache config  {<nsets>:<bsize>:<assoc>,<rep>:<wr>:<alloc>:<wr_alloc>,<mshr>:<N>:<merge>,<mq>} 
-gpgpu_cache:dl1     32:128:4,L:L:m:N:H,A:32:8,8 # per-shader L1 data cache config  {<nsets>:<bsize>:<assoc>,<rep>:<wr>:<alloc>:<wr_alloc>,<mshr>:<N>:<merge>,<mq> | none}
-gpgpu_cache:dl1PrefL1                 none # per-shader L1 data cache config  {<nsets>:<bsize>:<assoc>,<rep>:<wr>:<alloc>:<wr_alloc>,<mshr>:<N>:<merge>,<mq> | none}
-gpgpu_cache:dl1PreShared                 none # per-shader L1 data cache config  {<nsets>:<bsize>:<assoc>,<rep>:<wr>:<alloc>:<wr_alloc>,<mshr>:<N>:<merge>,<mq> | none}
-gmem_skip_L1D                          0 # global memory access skip L1D cache (implements -Xptxas -dlcm=cg, default=no skip)
-gpgpu_perfect_mem                      0 # enable perfect memory mode (no cache miss)
-n_regfile_gating_group                    4 # group of lanes that should be read/written together)
-gpgpu_clock_gated_reg_file                    0 # enable clock gated reg file for power calculations
-gpgpu_clock_gated_lanes                    0 # enable clock gated lanes for power calculations
-gpgpu_shader_registers                32768 # Number of registers per shader core. Limits number of concurrent CTAs. (default 8192)
-gpgpu_shader_cta                       8 # Maximum number of concurrent CTAs in shader (default 8)
-gpgpu_num_cta_barriers                   16 # Maximum number of named barriers per CTA (default 16)
-gpgpu_n_clusters                      15 # number of processing clusters
-gpgpu_n_cores_per_cluster                    1 # number of simd cores per cluster
-gpgpu_n_cluster_ejection_buffer_size                    8 # number of packets in ejection buffer
-gpgpu_n_ldst_response_buffer_size                    2 # number of response packets in ld/st unit ejection buffer
-gpgpu_shmem_size                   16384 # Size of shared memory per shader core (default 16kB)
-gpgpu_shmem_size                   49152 # Size of shared memory per shader core (default 16kB)
-gpgpu_shmem_size_PrefL1                16384 # Size of shared memory per shader core (default 16kB)
-gpgpu_shmem_size_PrefShared                16384 # Size of shared memory per shader core (default 16kB)
-gpgpu_shmem_num_banks                   32 # Number of banks in the shared memory in each shader core (default 16)
-gpgpu_shmem_limited_broadcast                    0 # Limit shared memory to do one broadcast per cycle (default on)
-gpgpu_shmem_warp_parts                    1 # Number of portions a warp is divided into for shared memory bank conflict check 
-gpgpu_warpdistro_shader                   -1 # Specify which shader core to collect the warp size distribution from
-gpgpu_warp_issue_shader                    0 # Specify which shader core to collect the warp issue distribution from
-gpgpu_local_mem_map                    1 # Mapping from local memory space address to simulated GPU physical address space (default = enabled)
-gpgpu_num_reg_banks                   16 # Number of register banks (default = 8)
-gpgpu_reg_bank_use_warp_id                    0 # Use warp ID in mapping registers to banks (default = off)
-gpgpu_operand_collector_num_units_sp                    6 # number of collector units (default = 4)
-gpgpu_operand_collector_num_units_sfu                    8 # number of collector units (default = 4)
-gpgpu_operand_collector_num_units_mem                    2 # number of collector units (default = 2)
-gpgpu_operand_collector_num_units_gen                    0 # number of collector units (default = 0)
-gpgpu_operand_collector_num_in_ports_sp                    2 # number of collector unit in ports (default = 1)
-gpgpu_operand_collector_num_in_ports_sfu                    1 # number of collector unit in ports (default = 1)
-gpgpu_operand_collector_num_in_ports_mem                    1 # number of collector unit in ports (default = 1)
-gpgpu_operand_collector_num_in_ports_gen                    0 # number of collector unit in ports (default = 0)
-gpgpu_operand_collector_num_out_ports_sp                    2 # number of collector unit in ports (default = 1)
-gpgpu_operand_collector_num_out_ports_sfu                    1 # number of collector unit in ports (default = 1)
-gpgpu_operand_collector_num_out_ports_mem                    1 # number of collector unit in ports (default = 1)
-gpgpu_operand_collector_num_out_ports_gen                    0 # number of collector unit in ports (default = 0)
-gpgpu_coalesce_arch                   13 # Coalescing arch (default = 13, anything else is off for now)
-gpgpu_num_sched_per_core                    2 # Number of warp schedulers per core
-gpgpu_max_insn_issue_per_warp                    1 # Max number of instructions that can be issued per warp in one cycle by scheduler
-gpgpu_simt_core_sim_order                    1 # Select the simulation order of cores in a cluster (0=Fix, 1=Round-Robin)
-gpgpu_pipeline_widths        2,1,1,2,1,1,2 # Pipeline widths ID_OC_SP,ID_OC_SFU,ID_OC_MEM,OC_EX_SP,OC_EX_SFU,OC_EX_MEM,EX_WB
-gpgpu_num_sp_units                     2 # Number of SP units (default=1)
-gpgpu_num_sfu_units                    1 # Number of SF units (default=1)
-gpgpu_num_mem_units                    1 # Number if ldst units (default=1) WARNING: not hooked up to anything
-gpgpu_scheduler                      gto # Scheduler configuration: < lrr | gto | two_level_active > If two_level_active:<num_active_warps>:<inner_prioritization>:<outer_prioritization>For complete list of prioritization values see shader.h enum scheduler_prioritization_typeDefault: gto
-gpgpu_dram_scheduler                    1 # 0 = fifo, 1 = FR-FCFS (defaul)
-gpgpu_dram_partition_queues              8:8:8:8 # i2$:$2d:d2$:$2i
-l2_ideal                               0 # Use a ideal L2 cache that always hit
-gpgpu_cache:dl2     64:128:8,L:B:m:W:L,A:32:4,4:0,32 # unified banked L2 data cache config  {<nsets>:<bsize>:<assoc>,<rep>:<wr>:<alloc>:<wr_alloc>,<mshr>:<N>:<merge>,<mq>}
-gpgpu_cache:dl2_texture_only                    0 # L2 cache used for texture only
-gpgpu_n_mem                            6 # number of memory modules (e.g. memory controllers) in gpu
-gpgpu_n_sub_partition_per_mchannel                    2 # number of memory subpartition in each memory module
-gpgpu_n_mem_per_ctrlr                    2 # number of memory chips per memory controller
-gpgpu_memlatency_stat                   14 # track and display latency statistics 0x2 enables MC, 0x4 enables queue logs
-gpgpu_frfcfs_dram_sched_queue_size                   16 # 0 = unlimited (default); # entries per chip
-gpgpu_dram_return_queue_size                  116 # 0 = unlimited (default); # entries per chip
-gpgpu_dram_buswidth                    4 # default = 4 bytes (8 bytes per cycle at DDR)
-gpgpu_dram_burst_length                    8 # Burst length of each DRAM request (default = 4 data bus cycle)
-dram_data_command_freq_ratio                    4 # Frequency ratio between DRAM data bus and command bus (default = 2 times, i.e. DDR)
-gpgpu_dram_timing_opt nbk=16:CCD=2:RRD=6:RCD=12:RAS=28:RP=12:RC=40: CL=12:WL=4:CDLR=5:WR=12:nbkgrp=4:CCDL=3:RTPL=2 # DRAM timing parameters = {nbk:tCCD:tRRD:tRCD:tRAS:tRP:tRC:CL:WL:tCDLR:tWR:nbkgrp:tCCDL:tRTPL}
-rop_latency                          120 # ROP queue latency (default 85)
-dram_latency                         100 # DRAM latency (default 30)
-gpgpu_mem_addr_mapping dramid@8;00000000.00000000.00000000.00000000.0000RRRR.RRRRRRRR.BBBCCCCB.CCSSSSSS # mapping memory address to dram model {dramid@<start bit>;<memory address map>}
-gpgpu_mem_addr_test                    0 # run sweep test to check address mapping for aliased address
-gpgpu_mem_address_mask                    1 # 0 = old addressing mask, 1 = new addressing mask, 2 = new add. mask + flipped bank sel and chip sel bits
-gpuwattch_xml_file  gpuwattch_gtx480.xml # GPUWattch XML file
-power_simulation_enabled                    1 # Turn on power simulator (1=On, 0=Off)
-power_per_cycle_dump                    0 # Dump detailed power output each cycle
-power_trace_enabled                    0 # produce a file for the power trace (1=On, 0=Off)
-power_trace_zlevel                     6 # Compression level of the power trace output log (0=no comp, 9=highest)
-steady_power_levels_enabled                    0 # produce a file for the steady power levels (1=On, 0=Off)
-steady_state_definition                  8:4 # allowed deviation:number of samples
-gpgpu_max_cycle                        0 # terminates gpu simulation early (0 = no limit)
-gpgpu_max_insn                         0 # terminates gpu simulation early (0 = no limit)
-gpgpu_max_cta                          0 # terminates gpu simulation early (0 = no limit)
-gpgpu_runtime_stat                   500 # display runtime statistics such as dram utilization {<freq>:<flag>}
-liveness_message_freq                    1 # Minimum number of seconds between simulation liveness messages (0 = always print)
-gpgpu_flush_l1_cache                    0 # Flush L1 cache at the end of each kernel call
-gpgpu_flush_l2_cache                    0 # Flush L2 cache at the end of each kernel call
-gpgpu_deadlock_detect                    1 # Stop the simulation at deadlock (1=on (default), 0=off)
-gpgpu_ptx_instruction_classification                    0 # if enabled will classify ptx instruction types per kernel (Max 255 kernels now)
-gpgpu_ptx_sim_mode                     0 # Select between Performance (default) or Functional simulation (1)
-gpgpu_clock_domains 700.0:700.0:700.0:924.0 # Clock Domain Frequencies in MhZ {<Core Clock>:<ICNT Clock>:<L2 Clock>:<DRAM Clock>}
-gpgpu_max_concurrent_kernel                    8 # maximum kernels that can run concurrently on GPU
-gpgpu_cflog_interval                    0 # Interval between each snapshot in control flow logger
-visualizer_enabled                     0 # Turn on visualizer output (1=On, 0=Off)
-visualizer_outputfile                 NULL # Specifies the output log file for visualizer
-visualizer_zlevel                      6 # Compression level of the visualizer output log (0=no comp, 9=highest)
-trace_enabled                          0 # Turn on traces
-trace_components                    none # comma seperated list of traces to enable. Complete list found in trace_streams.tup. Default none
-trace_sampling_core                    0 # The core which is printed using CORE_DPRINTF. Default 0
-trace_sampling_memory_partition                   -1 # The memory partition which is printed using MEMPART_DPRINTF. Default -1 (i.e. all)
-enable_ptx_file_line_stats                    1 # Turn on PTX source line statistic profiling. (1 = On)
-ptx_line_stats_filename gpgpu_inst_stats.txt # Output file for PTX source line statistics.
-save_embedded_ptx                      0 # saves ptx files embedded in binary as <n>.ptx
-keep                                   0 # keep intermediate files created by GPGPU-Sim when interfacing with external programs
-gpgpu_ptx_save_converted_ptxplus                    0 # Saved converted ptxplus to a file
-ptx_opcode_latency_int         4,13,4,5,145 # Opcode latencies for integers <ADD,MAX,MUL,MAD,DIV>Default 1,1,19,25,145
-ptx_opcode_latency_fp          4,13,4,5,39 # Opcode latencies for single precision floating points <ADD,MAX,MUL,MAD,DIV>Default 1,1,1,1,30
-ptx_opcode_latency_dp         8,19,8,8,330 # Opcode latencies for double precision floating points <ADD,MAX,MUL,MAD,DIV>Default 8,8,8,8,335
-ptx_opcode_initiation_int            1,2,2,1,8 # Opcode initiation intervals for integers <ADD,MAX,MUL,MAD,DIV>Default 1,1,4,4,32
-ptx_opcode_initiation_fp            1,2,1,1,4 # Opcode initiation intervals for single precision floating points <ADD,MAX,MUL,MAD,DIV>Default 1,1,1,1,5
-ptx_opcode_initiation_dp         8,16,8,8,130 # Opcode initiation intervals for double precision floating points <ADD,MAX,MUL,MAD,DIV>Default 8,8,8,8,130
DRAM Timing Options:
nbk                                    16 # number of banks
CCD                                     2 # column to column delay
RRD                                     6 # minimal delay between activation of rows in different banks
RCD                                    12 # row to column delay
RAS                                    28 # time needed to activate row
RP                                     12 # time needed to precharge (deactivate) row
RC                                     40 # row cycle time
CDLR                                    5 # switching from write to read (changes tWTR)
WR                                     12 # last data-in to row precharge
CL                                     12 # CAS latency
WL                                      4 # Write latency
nbkgrp                                  4 # number of bank groups
CCDL                                    3 # column to column delay between accesses to different bank groups
RTPL                                    2 # read to precharge delay between accesses to different bank groups
Total number of memory sub partition = 12
addr_dec_mask[CHIP]  = 0000000000000000 	high:64 low:0
addr_dec_mask[BK]    = 000000000000e100 	high:16 low:8
addr_dec_mask[ROW]   = 000000000fff0000 	high:28 low:16
addr_dec_mask[COL]   = 0000000000001eff 	high:13 low:0
addr_dec_mask[BURST] = 000000000000003f 	high:6 low:0
sub_partition_id_mask = 0000000000000100
GPGPU-Sim uArch: clock freqs: 700000000.000000:700000000.000000:700000000.000000:924000000.000000
GPGPU-Sim uArch: clock periods: 0.00000000142857142857:0.00000000142857142857:0.00000000142857142857:0.00000000108225108225
*** Initializing Memory Statistics ***
GPGPU-Sim uArch: interconnect node map (shaderID+MemID to icntID)
GPGPU-Sim uArch: Memory nodes ID start from index: 15
GPGPU-Sim uArch:    0   1   2   3   4
GPGPU-Sim uArch:    5   6   7   8   9
GPGPU-Sim uArch:   10  11  12  13  14
GPGPU-Sim uArch:   15  16  17  18  19
GPGPU-Sim uArch:   20  21  22  23  24
GPGPU-Sim uArch:   25  26
GPGPU-Sim uArch: interconnect node reverse map (icntID to shaderID+MemID)
GPGPU-Sim uArch: Memory nodes start from ID: 15
GPGPU-Sim uArch:    0   1   2   3   4
GPGPU-Sim uArch:    5   6   7   8   9
GPGPU-Sim uArch:   10  11  12  13  14
GPGPU-Sim uArch:   15  16  17  18  19
GPGPU-Sim uArch:   20  21  22  23  24
GPGPU-Sim uArch:   25  26
227d88bae8a8748643f0c783079cd05a  /root/ispass2009-benchmarks/bin/release/RAY
GPGPU-Sim uArch: performance model initialization complete.
GPGPU-Sim PTX: __cudaRegisterFatBinary, fat_cubin_handle = 1, filename=rayTracing.cu
self exe links to: /root/ispass2009-benchmarks/bin/release/RAY
Running md5sum using "md5sum /root/ispass2009-benchmarks/bin/release/RAY "
Running cuobjdump using "$CUDA_INSTALL_PATH/bin/cuobjdump -ptx -elf -sass /root/ispass2009-benchmarks/bin/release/RAY > _cuobjdump_complete_output_wIF1eC"
Parsing file _cuobjdump_complete_output_wIF1eC
######### cuobjdump parser ########
## Adding new section PTX
Adding ptx filename: _cuobjdump_1.ptx
Adding arch: sm_10
Adding identifier: rayTracing.cu
## Adding new section ELF
Adding arch: sm_10
Adding identifier: rayTracing.cu
## Adding new section PTX
Adding ptx filename: _cuobjdump_2.ptx
Adding arch: sm_20
Adding identifier: rayTracing.cu
## Adding new section ELF
Adding arch: sm_20
Adding identifier: rayTracing.cu
Done parsing!!!
GPGPU-Sim PTX: __cudaRegisterFunction _Z6renderPjP4Nodejjff : hostFun 0x0x40a250, fat_cubin_handle = 1
GPGPU-Sim PTX: allocating stack frame region for .param "__cudaretf__Zmi6float3S_" from 0x0 to 0xc
GPGPU-Sim PTX: allocating stack frame region for .param "__cudaparmf1__Zmi6float3S_" from 0xc to 0x18
GPGPU-Sim PTX: allocating stack frame region for .param "__cudaparmf2__Zmi6float3S_" from 0x18 to 0x24
GPGPU-Sim PTX: allocating stack frame region for .param "__cudaretf__Z9normalize6float3" from 0x0 to 0xc
GPGPU-Sim PTX: allocating stack frame region for .param "__cudaparmf1__Z9normalize6float3" from 0xc to 0x18
GPGPU-Sim PTX: allocating stack frame region for .param "__cudaretf__Z18intersectionSphere5Rayon6float3f" from 0x0 to 0x4
GPGPU-Sim PTX: allocating stack frame region for .param "__cudaparmf1__Z18intersectionSphere5Rayon6float3f" from 0x4 to 0x1c
GPGPU-Sim PTX: allocating stack frame region for .param "__cudaparmf2__Z18intersectionSphere5Rayon6float3f" from 0x1c to 0x28
GPGPU-Sim PTX: allocating stack frame region for .param "__cudaparmf3__Z18intersectionSphere5Rayon6float3f" from 0x28 to 0x2c
GPGPU-Sim PTX: allocating stack frame region for .param "__cudaretf__Z16intersectionPlan5Rayon6float3S0_" from 0x0 to 0x4
GPGPU-Sim PTX: allocating stack frame region for .param "__cudaparmf1__Z16intersectionPlan5Rayon6float3S0_" from 0x4 to 0x1c
GPGPU-Sim PTX: allocating stack frame region for .param "__cudaparmf2__Z16intersectionPlan5Rayon6float3S0_" from 0x1c to 0x28
GPGPU-Sim PTX: allocating stack frame region for .param "__cudaparmf3__Z16intersectionPlan5Rayon6float3S0_" from 0x28 to 0x34
GPGPU-Sim PTX: allocating stack frame region for .param "__cudaretf__Z10getNormale6float3S_" from 0x0 to 0xc
GPGPU-Sim PTX: allocating stack frame region for .param "__cudaparmf1__Z10getNormale6float3S_" from 0xc to 0x18
GPGPU-Sim PTX: allocating stack frame region for .param "__cudaparmf2__Z10getNormale6float3S_" from 0x18 to 0x24
GPGPU-Sim PTX: allocating stack frame region for .param "__cudaretf__Z11getNormaleP6float3" from 0x0 to 0xc
GPGPU-Sim PTX: allocating stack frame region for .param "__cudaparmf1__Z11getNormaleP6float3" from 0xc to 0x18
GPGPU-Sim PTX: allocating stack frame region for .param "__cudaretf__Z14rgbaFloatToInt6float4" from 0x0 to 0x4
GPGPU-Sim PTX: allocating stack frame region for .param "__cudaparmf1__Z14rgbaFloatToInt6float4" from 0x4 to 0x14
GPGPU-Sim PTX: allocating stack frame region for .param "__cudaretf__Z12notShadowRayP4Node6float3S1_f" from 0x0 to 0x4
GPGPU-Sim PTX: allocating stack frame region for .param "__cudaparmf1__Z12notShadowRayP4Node6float3S1_f" from 0x4 to 0xc
GPGPU-Sim PTX: allocating stack frame region for .param "__cudaparmf2__Z12notShadowRayP4Node6float3S1_f" from 0xc to 0x18
GPGPU-Sim PTX: allocating stack frame region for .param "__cudaparmf3__Z12notShadowRayP4Node6float3S1_f" from 0x18 to 0x24
GPGPU-Sim PTX: allocating stack frame region for .param "__cudaparmf4__Z12notShadowRayP4Node6float3S1_f" from 0x24 to 0x28
GPGPU-Sim PTX: allocating stack frame region for .param "__cudaretf__Z15float2int_pow20f" from 0x0 to 0x4
GPGPU-Sim PTX: allocating stack frame region for .param "__cudaparmf1__Z15float2int_pow20f" from 0x4 to 0x8
GPGPU-Sim PTX: allocating stack frame region for .param "__cudaretf__Z15float2int_pow50f" from 0x0 to 0x4
GPGPU-Sim PTX: allocating stack frame region for .param "__cudaparmf1__Z15float2int_pow50f" from 0x4 to 0x8
GPGPU-Sim PTX: allocating stack frame region for .param "__cudaparmf1__ZN4dim3C1Ejjj" from 0x0 to 0x8
GPGPU-Sim PTX: allocating stack frame region for .param "__cudaparmf2__ZN4dim3C1Ejjj" from 0x8 to 0xc
GPGPU-Sim PTX: allocating stack frame region for .param "__cudaparmf3__ZN4dim3C1Ejjj" from 0xc to 0x10
GPGPU-Sim PTX: allocating stack frame region for .param "__cudaparmf4__ZN4dim3C1Ejjj" from 0x10 to 0x14
GPGPU-Sim PTX: instruction assembly for function '_Zmi6float3S_'...   done.
GPGPU-Sim PTX: finding reconvergence points for '_Zmi6float3S_'...
GPGPU-Sim PTX: Finding dominators for '_Zmi6float3S_'...
GPGPU-Sim PTX: Finding immediate dominators for '_Zmi6float3S_'...
GPGPU-Sim PTX: Finding postdominators for '_Zmi6float3S_'...
GPGPU-Sim PTX: Finding immediate postdominators for '_Zmi6float3S_'...
GPGPU-Sim PTX: pre-decoding instructions for '_Zmi6float3S_'...
GPGPU-Sim PTX: reconvergence points for _Zmi6float3S_...
GPGPU-Sim PTX: ... end of reconvergence points for _Zmi6float3S_
GPGPU-Sim PTX: ... done pre-decoding instructions for '_Zmi6float3S_'.
GPGPU-Sim PTX: instruction assembly for function '_Z9normalize6float3'...   done.
GPGPU-Sim PTX: finding reconvergence points for '_Z9normalize6float3'...
GPGPU-Sim PTX: Finding dominators for '_Z9normalize6float3'...
GPGPU-Sim PTX: Finding immediate dominators for '_Z9normalize6float3'...
GPGPU-Sim PTX: Finding postdominators for '_Z9normalize6float3'...
GPGPU-Sim PTX: Finding immediate postdominators for '_Z9normalize6float3'...
GPGPU-Sim PTX: pre-decoding instructions for '_Z9normalize6float3'...
GPGPU-Sim PTX: reconvergence points for _Z9normalize6float3...
GPGPU-Sim PTX: ... end of reconvergence points for _Z9normalize6float3
GPGPU-Sim PTX: ... done pre-decoding instructions for '_Z9normalize6float3'.
GPGPU-Sim PTX: instruction assembly for function '_Z18intersectionSphere5Rayon6float3f'...   done.
GPGPU-Sim PTX: finding reconvergence points for '_Z18intersectionSphere5Rayon6float3f'...
GPGPU-Sim PTX: Finding dominators for '_Z18intersectionSphere5Rayon6float3f'...
GPGPU-Sim PTX: Finding immediate dominators for '_Z18intersectionSphere5Rayon6float3f'...
GPGPU-Sim PTX: Finding postdominators for '_Z18intersectionSphere5Rayon6float3f'...
GPGPU-Sim PTX: Finding immediate postdominators for '_Z18intersectionSphere5Rayon6float3f'...
GPGPU-Sim PTX: pre-decoding instructions for '_Z18intersectionSphere5Rayon6float3f'...
GPGPU-Sim PTX: reconvergence points for _Z18intersectionSphere5Rayon6float3f...
GPGPU-Sim PTX:  1 (potential) branch divergence @  PC=0x250 (_1.ptx:173) @%p2 bra $Lt_2_3074;
GPGPU-Sim PTX:    immediate post dominator      @  PC=0x2c0 (_1.ptx:193) mov.f32 %f39, %f32;
GPGPU-Sim PTX:  2 (potential) branch divergence @  PC=0x260 (_1.ptx:175) bra.uni $Lt_2_2818;
GPGPU-Sim PTX:    immediate post dominator      @  PC=0x2c0 (_1.ptx:193) mov.f32 %f39, %f32;
GPGPU-Sim PTX:  3 (potential) branch divergence @  PC=0x280 (_1.ptx:180) @!%p3 bra $Lt_2_3586;
GPGPU-Sim PTX:    immediate post dominator      @  PC=0x2c0 (_1.ptx:193) mov.f32 %f39, %f32;
GPGPU-Sim PTX:  4 (potential) branch divergence @  PC=0x290 (_1.ptx:182) bra.uni $Lt_2_3330;
GPGPU-Sim PTX:    immediate post dominator      @  PC=0x2c0 (_1.ptx:193) mov.f32 %f39, %f32;
GPGPU-Sim PTX: ... end of reconvergence points for _Z18intersectionSphere5Rayon6float3f
GPGPU-Sim PTX: ... done pre-decoding instructions for '_Z18intersectionSphere5Rayon6float3f'.
GPGPU-Sim PTX: instruction assembly for function '_Z16intersectionPlan5Rayon6float3S0_'...   done.
GPGPU-Sim PTX: finding reconvergence points for '_Z16intersectionPlan5Rayon6float3S0_'...
GPGPU-Sim PTX: Finding dominators for '_Z16intersectionPlan5Rayon6float3S0_'...
GPGPU-Sim PTX: Finding immediate dominators for '_Z16intersectionPlan5Rayon6float3S0_'...
GPGPU-Sim PTX: Finding postdominators for '_Z16intersectionPlan5Rayon6float3S0_'...
GPGPU-Sim PTX: Finding immediate postdominators for '_Z16intersectionPlan5Rayon6float3S0_'...
GPGPU-Sim PTX: pre-decoding instructions for '_Z16intersectionPlan5Rayon6float3S0_'...
GPGPU-Sim PTX: reconvergence points for _Z16intersectionPlan5Rayon6float3S0_...
GPGPU-Sim PTX:  1 (potential) branch divergence @  PC=0x320 (_1.ptx:214) @!%p1 bra $Lt_3_2050;
GPGPU-Sim PTX:    immediate post dominator      @  PC=0x368 (_1.ptx:227) mov.f32 %f14, %f9;
GPGPU-Sim PTX:  2 (potential) branch divergence @  PC=0x330 (_1.ptx:216) bra.uni $Lt_3_1794;
GPGPU-Sim PTX:    immediate post dominator      @  PC=0x368 (_1.ptx:227) mov.f32 %f14, %f9;
GPGPU-Sim PTX: ... end of reconvergence points for _Z16intersectionPlan5Rayon6float3S0_
GPGPU-Sim PTX: ... done pre-decoding instructions for '_Z16intersectionPlan5Rayon6float3S0_'.
GPGPU-Sim PTX: instruction assembly for function '_Z10getNormale6float3S_'...   done.
GPGPU-Sim PTX: finding reconvergence points for '_Z10getNormale6float3S_'...
GPGPU-Sim PTX: Finding dominators for '_Z10getNormale6float3S_'...
GPGPU-Sim PTX: Finding immediate dominators for '_Z10getNormale6float3S_'...
GPGPU-Sim PTX: Finding postdominators for '_Z10getNormale6float3S_'...
GPGPU-Sim PTX: Finding immediate postdominators for '_Z10getNormale6float3S_'...
GPGPU-Sim PTX: pre-decoding instructions for '_Z10getNormale6float3S_'...
GPGPU-Sim PTX: reconvergence points for _Z10getNormale6float3S_...
GPGPU-Sim PTX: ... end of reconvergence points for _Z10getNormale6float3S_
GPGPU-Sim PTX: ... done pre-decoding instructions for '_Z10getNormale6float3S_'.
GPGPU-Sim PTX: instruction assembly for function '_Z11getNormaleP6float3'...   done.
GPGPU-Sim PTX: finding reconvergence points for '_Z11getNormaleP6float3'...
GPGPU-Sim PTX: Finding dominators for '_Z11getNormaleP6float3'...
GPGPU-Sim PTX: Finding immediate dominators for '_Z11getNormaleP6float3'...
GPGPU-Sim PTX: Finding postdominators for '_Z11getNormaleP6float3'...
GPGPU-Sim PTX: Finding immediate postdominators for '_Z11getNormaleP6float3'...
GPGPU-Sim PTX: pre-decoding instructions for '_Z11getNormaleP6float3'...
GPGPU-Sim PTX: reconvergence points for _Z11getNormaleP6float3...
GPGPU-Sim PTX: ... end of reconvergence points for _Z11getNormaleP6float3
GPGPU-Sim PTX: ... done pre-decoding instructions for '_Z11getNormaleP6float3'.
GPGPU-Sim PTX: instruction assembly for function '_Z14rgbaFloatToInt6float4'...   done.
GPGPU-Sim PTX: finding reconvergence points for '_Z14rgbaFloatToInt6float4'...
GPGPU-Sim PTX: Finding dominators for '_Z14rgbaFloatToInt6float4'...
GPGPU-Sim PTX: Finding immediate dominators for '_Z14rgbaFloatToInt6float4'...
GPGPU-Sim PTX: Finding postdominators for '_Z14rgbaFloatToInt6float4'...
GPGPU-Sim PTX: Finding immediate postdominators for '_Z14rgbaFloatToInt6float4'...
GPGPU-Sim PTX: pre-decoding instructions for '_Z14rgbaFloatToInt6float4'...
GPGPU-Sim PTX: reconvergence points for _Z14rgbaFloatToInt6float4...
GPGPU-Sim PTX: ... end of reconvergence points for _Z14rgbaFloatToInt6float4
GPGPU-Sim PTX: ... done pre-decoding instructions for '_Z14rgbaFloatToInt6float4'.
GPGPU-Sim PTX: allocating global region for "cnode" from 0x100 to 0x1a0 (global memory space)
GPGPU-Sim PTX: instruction assembly for function '_Z12notShadowRayP4Node6float3S1_f'...   done.
GPGPU-Sim PTX: finding reconvergence points for '_Z12notShadowRayP4Node6float3S1_f'...
GPGPU-Sim PTX: Finding dominators for '_Z12notShadowRayP4Node6float3S1_f'...
GPGPU-Sim PTX: Finding immediate dominators for '_Z12notShadowRayP4Node6float3S1_f'...
GPGPU-Sim PTX: Finding postdominators for '_Z12notShadowRayP4Node6float3S1_f'...
GPGPU-Sim PTX: Finding immediate postdominators for '_Z12notShadowRayP4Node6float3S1_f'...
GPGPU-Sim PTX: pre-decoding instructions for '_Z12notShadowRayP4Node6float3S1_f'...
GPGPU-Sim PTX: reconvergence points for _Z12notShadowRayP4Node6float3S1_f...
GPGPU-Sim PTX:  1 (potential) branch divergence @  PC=0x638 (_1.ptx:364) @%p1 bra $Lt_7_8450;
GPGPU-Sim PTX:    immediate post dominator      @  PC=0x828 (_1.ptx:441) mov.f32 %f58, 0f00000000;    // 0
GPGPU-Sim PTX:  2 (potential) branch divergence @  PC=0x658 (_1.ptx:369) @!%p2 bra $Lt_7_8962;
GPGPU-Sim PTX:    immediate post dominator      @  PC=0x6b8 (_1.ptx:385) mov.f32 %f28, %f20;
GPGPU-Sim PTX:  3 (potential) branch divergence @  PC=0x668 (_1.ptx:371) bra.uni $Lt_7_8706;
GPGPU-Sim PTX:    immediate post dominator      @  PC=0x6b8 (_1.ptx:385) mov.f32 %f28, %f20;
GPGPU-Sim PTX:  4 (potential) branch divergence @  PC=0x6c0 (_1.ptx:386) bra.uni $Lt_7_8194;
GPGPU-Sim PTX:    immediate post dominator      @  PC=0x828 (_1.ptx:441) mov.f32 %f58, 0f00000000;    // 0
GPGPU-Sim PTX:  5 (potential) branch divergence @  PC=0x7b0 (_1.ptx:418) @%p5 bra $Lt_7_9474;
GPGPU-Sim PTX:    immediate post dominator      @  PC=0x820 (_1.ptx:438) mov.f32 %f28, %f51;
GPGPU-Sim PTX:  6 (potential) branch divergence @  PC=0x7c0 (_1.ptx:420) bra.uni $Lt_7_9730;
GPGPU-Sim PTX:    immediate post dominator      @  PC=0x820 (_1.ptx:438) mov.f32 %f28, %f51;
GPGPU-Sim PTX:  7 (potential) branch divergence @  PC=0x7e0 (_1.ptx:425) @!%p6 bra $Lt_7_9986;
GPGPU-Sim PTX:    immediate post dominator      @  PC=0x820 (_1.ptx:438) mov.f32 %f28, %f51;
GPGPU-Sim PTX:  8 (potential) branch divergence @  PC=0x7f0 (_1.ptx:427) bra.uni $Lt_7_9730;
GPGPU-Sim PTX:    immediate post dominator      @  PC=0x820 (_1.ptx:438) mov.f32 %f28, %f51;
GPGPU-Sim PTX:  9 (potential) branch divergence @  PC=0x838 (_1.ptx:443) @!%p7 bra $Lt_7_10242;
GPGPU-Sim PTX:    immediate post dominator      @  PC=0x8e8 (_1.ptx:468) add.s32 %r1, %r1, 1;
GPGPU-Sim PTX: 10 (potential) branch divergence @  PC=0x8d8 (_1.ptx:463) @!%p8 bra $Lt_7_10242;
GPGPU-Sim PTX:    immediate post dominator      @  PC=0x8e8 (_1.ptx:468) add.s32 %r1, %r1, 1;
GPGPU-Sim PTX: 11 (potential) branch divergence @  PC=0x908 (_1.ptx:472) @%p9 bra $Lt_7_10754;
GPGPU-Sim PTX:    immediate post dominator      @  PC=0x960 (_1.ptx:486) selp.s32 %r10, 1, 0, %p11;
GPGPU-Sim PTX: 12 (potential) branch divergence @  PC=0x930 (_1.ptx:477) @%p10 bra $L_7_7170;
GPGPU-Sim PTX:    immediate post dominator      @  PC=0x960 (_1.ptx:486) selp.s32 %r10, 1, 0, %p11;
GPGPU-Sim PTX: 13 (potential) branch divergence @  PC=0x938 (_1.ptx:478) bra.uni $L_7_7938;
GPGPU-Sim PTX:    immediate post dominator      @  PC=0x960 (_1.ptx:486) selp.s32 %r10, 1, 0, %p11;
GPGPU-Sim PTX: ... end of reconvergence points for _Z12notShadowRayP4Node6float3S1_f
GPGPU-Sim PTX: ... done pre-decoding instructions for '_Z12notShadowRayP4Node6float3S1_f'.
GPGPU-Sim PTX: instruction assembly for function '_Z15float2int_pow20f'...   done.
GPGPU-Sim PTX: finding reconvergence points for '_Z15float2int_pow20f'...
GPGPU-Sim PTX: Finding dominators for '_Z15float2int_pow20f'...
GPGPU-Sim PTX: Finding immediate dominators for '_Z15float2int_pow20f'...
GPGPU-Sim PTX: Finding postdominators for '_Z15float2int_pow20f'...
GPGPU-Sim PTX: Finding immediate postdominators for '_Z15float2int_pow20f'...
GPGPU-Sim PTX: pre-decoding instructions for '_Z15float2int_pow20f'...
GPGPU-Sim PTX: reconvergence points for _Z15float2int_pow20f...
GPGPU-Sim PTX: ... end of reconvergence points for _Z15float2int_pow20f
GPGPU-Sim PTX: ... done pre-decoding instructions for '_Z15float2int_pow20f'.
GPGPU-Sim PTX: instruction assembly for function '_Z15float2int_pow50f'...   done.
GPGPU-Sim PTX: finding reconvergence points for '_Z15float2int_pow50f'...
GPGPU-Sim PTX: Finding dominators for '_Z15float2int_pow50f'...
GPGPU-Sim PTX: Finding immediate dominators for '_Z15float2int_pow50f'...
GPGPU-Sim PTX: Finding postdominators for '_Z15float2int_pow50f'...
GPGPU-Sim PTX: Finding immediate postdominators for '_Z15float2int_pow50f'...
GPGPU-Sim PTX: pre-decoding instructions for '_Z15float2int_pow50f'...
GPGPU-Sim PTX: reconvergence points for _Z15float2int_pow50f...
GPGPU-Sim PTX: ... end of reconvergence points for _Z15float2int_pow50f
GPGPU-Sim PTX: ... done pre-decoding instructions for '_Z15float2int_pow50f'.
GPGPU-Sim PTX: allocating constant region for "MView" from 0x200 to 0x230 (global memory space) 1
GPGPU-Sim PTX: allocating stack frame region for .local "__cuda___cuda_local_var_37176_9_non_const_pile_32240" from 0x0 to 0x50
GPGPU-Sim PTX: instruction assembly for function '_Z6renderPjP4Nodejjff'...   done.
GPGPU-Sim PTX: finding reconvergence points for '_Z6renderPjP4Nodejjff'...
GPGPU-Sim PTX: Finding dominators for '_Z6renderPjP4Nodejjff'...
GPGPU-Sim PTX: Finding immediate dominators for '_Z6renderPjP4Nodejjff'...
GPGPU-Sim PTX: Finding postdominators for '_Z6renderPjP4Nodejjff'...
GPGPU-Sim PTX: Finding immediate postdominators for '_Z6renderPjP4Nodejjff'...
GPGPU-Sim PTX: pre-decoding instructions for '_Z6renderPjP4Nodejjff'...
GPGPU-Sim PTX: reconvergence points for _Z6renderPjP4Nodejjff...
GPGPU-Sim PTX:  1 (potential) branch divergence @  PC=0xdb0 (_1.ptx:663) @%p1 bra $Lt_10_44034;
GPGPU-Sim PTX:    immediate post dominator      @  PC=0x2370 (_1.ptx:1495) exit;
GPGPU-Sim PTX:  2 (potential) branch divergence @  PC=0x1028 (_1.ptx:751) @%p2 bra $Lt_10_45570;
GPGPU-Sim PTX:    immediate post dominator      @  PC=0x11b8 (_1.ptx:815) mov.f32 %f108, 0f00000000;   // 0
GPGPU-Sim PTX:  3 (potential) branch divergence @  PC=0x1048 (_1.ptx:756) @!%p3 bra $Lt_10_46082;
GPGPU-Sim PTX:    immediate post dominator      @  PC=0x1090 (_1.ptx:769) mov.f32 %f87, %f82;
GPGPU-Sim PTX:  4 (potential) branch divergence @  PC=0x1058 (_1.ptx:758) bra.uni $Lt_10_45826;
GPGPU-Sim PTX:    immediate post dominator      @  PC=0x1090 (_1.ptx:769) mov.f32 %f87, %f82;
GPGPU-Sim PTX:  5 (potential) branch divergence @  PC=0x1098 (_1.ptx:770) bra.uni $Lt_10_45314;
GPGPU-Sim PTX:    immediate post dominator      @  PC=0x11b8 (_1.ptx:815) mov.f32 %f108, 0f00000000;   // 0
GPGPU-Sim PTX:  6 (potential) branch divergence @  PC=0x1140 (_1.ptx:793) @%p6 bra $Lt_10_46594;
GPGPU-Sim PTX:    immediate post dominator      @  PC=0x11b0 (_1.ptx:813) mov.f32 %f87, %f101;
GPGPU-Sim PTX:  7 (potential) branch divergence @  PC=0x1150 (_1.ptx:795) bra.uni $Lt_10_46850;
GPGPU-Sim PTX:    immediate post dominator      @  PC=0x11b0 (_1.ptx:813) mov.f32 %f87, %f101;
GPGPU-Sim PTX:  8 (potential) branch divergence @  PC=0x1170 (_1.ptx:800) @!%p7 bra $Lt_10_47106;
GPGPU-Sim PTX:    immediate post dominator      @  PC=0x11b0 (_1.ptx:813) mov.f32 %f87, %f101;
GPGPU-Sim PTX:  9 (potential) branch divergence @  PC=0x1180 (_1.ptx:802) bra.uni $Lt_10_46850;
GPGPU-Sim PTX:    immediate post dominator      @  PC=0x11b0 (_1.ptx:813) mov.f32 %f87, %f101;
GPGPU-Sim PTX: 10 (potential) branch divergence @  PC=0x11f8 (_1.ptx:823) @%p8 bra $Lt_10_47362;
GPGPU-Sim PTX:    immediate post dominator      @  PC=0x1210 (_1.ptx:829) add.s32 %r25, %r25, 1;
GPGPU-Sim PTX: 11 (potential) branch divergence @  PC=0x1230 (_1.ptx:833) @%p9 bra $Lt_10_45058;
GPGPU-Sim PTX:    immediate post dominator      @  PC=0x1238 (_1.ptx:834) mov.f32 %f109, 0f00000000;   // 0
GPGPU-Sim PTX: 12 (potential) branch divergence @  PC=0x1280 (_1.ptx:843) @%p10 bra $Lt_10_48130;
GPGPU-Sim PTX:    immediate post dominator      @  PC=0x2140 (_1.ptx:1416) add.s32 %r23, %r23, 1;
GPGPU-Sim PTX: 13 (potential) branch divergence @  PC=0x1330 (_1.ptx:868) @%p11 bra $Lt_10_48898;
GPGPU-Sim PTX:    immediate post dominator      @  PC=0x13b8 (_1.ptx:888) sub.f32 %f136, %f21, %f119;
GPGPU-Sim PTX: 14 (potential) branch divergence @  PC=0x1350 (_1.ptx:873) bra.uni $Lt_10_48642;
GPGPU-Sim PTX:    immediate post dominator      @  PC=0x13b8 (_1.ptx:888) sub.f32 %f136, %f21, %f119;
GPGPU-Sim PTX: 15 (potential) branch divergence @  PC=0x1430 (_1.ptx:903) @!%p12 bra $Lt_10_49410;
GPGPU-Sim PTX:    immediate post dominator      @  PC=0x1470 (_1.ptx:915) mov.f32 %f153, 0f3d4ccccd;   // 0.05
GPGPU-Sim PTX: 16 (potential) branch divergence @  PC=0x1450 (_1.ptx:908) bra.uni $Lt_10_49154;
GPGPU-Sim PTX:    immediate post dominator      @  PC=0x1470 (_1.ptx:915) mov.f32 %f153, 0f3d4ccccd;   // 0.05
GPGPU-Sim PTX: 17 (potential) branch divergence @  PC=0x1578 (_1.ptx:949) @!%p13 bra $Lt_10_58114;
GPGPU-Sim PTX:    immediate post dominator      @  PC=0x2080 (_1.ptx:1388) add.f32 %f399, %f126, %f126;
GPGPU-Sim PTX: 18 (potential) branch divergence @  PC=0x15c0 (_1.ptx:961) @%p14 bra $Lt_10_49922;
GPGPU-Sim PTX:    immediate post dominator      @  PC=0x17b0 (_1.ptx:1039) mov.f32 %f221, 0f00000000;   // 0
GPGPU-Sim PTX: 19 (potential) branch divergence @  PC=0x15e0 (_1.ptx:966) @!%p15 bra $Lt_10_50434;
GPGPU-Sim PTX:    immediate post dominator      @  PC=0x1638 (_1.ptx:982) mov.f32 %f190, %f183;
GPGPU-Sim PTX: 20 (potential) branch divergence @  PC=0x15f0 (_1.ptx:968) bra.uni $Lt_10_50178;
GPGPU-Sim PTX:    immediate post dominator      @  PC=0x1638 (_1.ptx:982) mov.f32 %f190, %f183;
GPGPU-Sim PTX: 21 (potential) branch divergence @  PC=0x1640 (_1.ptx:983) bra.uni $Lt_10_49666;
GPGPU-Sim PTX:    immediate post dominator      @  PC=0x17b0 (_1.ptx:1039) mov.f32 %f221, 0f00000000;   // 0
GPGPU-Sim PTX: 22 (potential) branch divergence @  PC=0x1738 (_1.ptx:1016) @%p18 bra $Lt_10_50946;
GPGPU-Sim PTX:    immediate post dominator      @  PC=0x17a8 (_1.ptx:1036) mov.f32 %f190, %f214;
GPGPU-Sim PTX: 23 (potential) branch divergence @  PC=0x1748 (_1.ptx:1018) bra.uni $Lt_10_51202;
GPGPU-Sim PTX:    immediate post dominator      @  PC=0x17a8 (_1.ptx:1036) mov.f32 %f190, %f214;
GPGPU-Sim PTX: 24 (potential) branch divergence @  PC=0x1768 (_1.ptx:1023) @!%p19 bra $Lt_10_51458;
GPGPU-Sim PTX:    immediate post dominator      @  PC=0x17a8 (_1.ptx:1036) mov.f32 %f190, %f214;
GPGPU-Sim PTX: 25 (potential) branch divergence @  PC=0x1778 (_1.ptx:1025) bra.uni $Lt_10_51202;
GPGPU-Sim PTX:    immediate post dominator      @  PC=0x17a8 (_1.ptx:1036) mov.f32 %f190, %f214;
GPGPU-Sim PTX: 26 (potential) branch divergence @  PC=0x17c0 (_1.ptx:1041) @!%p20 bra $Lt_10_58370;
GPGPU-Sim PTX:    immediate post dominator      @  PC=0x1828 (_1.ptx:1057) add.s32 %r50, %r50, 1;
GPGPU-Sim PTX: 27 (potential) branch divergence @  PC=0x1818 (_1.ptx:1052) @!%p21 bra $Lt_10_58370;
GPGPU-Sim PTX:    immediate post dominator      @  PC=0x1828 (_1.ptx:1057) add.s32 %r50, %r50, 1;
GPGPU-Sim PTX: 28 (potential) branch divergence @  PC=0x1848 (_1.ptx:1061) @%p22 bra $Lt_10_58882;
GPGPU-Sim PTX:    immediate post dominator      @  PC=0x1880 (_1.ptx:1071) @!%p23 bra $Lt_10_58114;
GPGPU-Sim PTX: 29 (potential) branch divergence @  PC=0x1860 (_1.ptx:1064) @%p23 bra $L_10_42498;
GPGPU-Sim PTX:    immediate post dominator      @  PC=0x1880 (_1.ptx:1071) @!%p23 bra $Lt_10_58114;
GPGPU-Sim PTX: 30 (potential) branch divergence @  PC=0x1868 (_1.ptx:1065) bra.uni $L_10_43266;
GPGPU-Sim PTX:    immediate post dominator      @  PC=0x1880 (_1.ptx:1071) @!%p23 bra $Lt_10_58114;
GPGPU-Sim PTX: 31 (potential) branch divergence @  PC=0x1880 (_1.ptx:1071) @!%p23 bra $Lt_10_58114;
GPGPU-Sim PTX:    immediate post dominator      @  PC=0x2080 (_1.ptx:1388) add.f32 %f399, %f126, %f126;
GPGPU-Sim PTX: 32 (potential) branch divergence @  PC=0x19c8 (_1.ptx:1115) @!%p24 bra $Lt_10_51714;
GPGPU-Sim PTX:    immediate post dominator      @  PC=0x2040 (_1.ptx:1375) mov.f32 %f394, 0f3f4ccccd;   // 0.8
GPGPU-Sim PTX: 33 (potential) branch divergence @  PC=0x19d8 (_1.ptx:1118) bra.uni $LDWendi___isnanf_192_1;
GPGPU-Sim PTX:    immediate post dominator      @  PC=0x2040 (_1.ptx:1375) mov.f32 %f394, 0f3f4ccccd;   // 0.8
GPGPU-Sim PTX: 34 (potential) branch divergence @  PC=0x19f8 (_1.ptx:1124) @!%p25 bra $Lt_10_7682;
GPGPU-Sim PTX:    immediate post dominator      @  PC=0x2040 (_1.ptx:1375) mov.f32 %f394, 0f3f4ccccd;   // 0.8
GPGPU-Sim PTX: 35 (potential) branch divergence @  PC=0x1a00 (_1.ptx:1125) bra.uni $Lt_10_7938;
GPGPU-Sim PTX:    immediate post dominator      @  PC=0x1a20 (_1.ptx:1133) mov.f32 %f272, 0f7f800000;   // ((1.0F)/(0.0F))
GPGPU-Sim PTX: 36 (potential) branch divergence @  PC=0x1a18 (_1.ptx:1130) bra.uni $LDWendi___isnanf_192_1;
GPGPU-Sim PTX:    immediate post dominator      @  PC=0x2040 (_1.ptx:1375) mov.f32 %f394, 0f3f4ccccd;   // 0.8
GPGPU-Sim PTX: 37 (potential) branch divergence @  PC=0x1a30 (_1.ptx:1135) @!%p26 bra $Lt_10_52226;
GPGPU-Sim PTX:    immediate post dominator      @  PC=0x2040 (_1.ptx:1375) mov.f32 %f394, 0f3f4ccccd;   // 0.8
GPGPU-Sim PTX: 38 (potential) branch divergence @  PC=0x1a40 (_1.ptx:1138) bra.uni $LDWendi___isnanf_192_1;
GPGPU-Sim PTX:    immediate post dominator      @  PC=0x2040 (_1.ptx:1375) mov.f32 %f394, 0f3f4ccccd;   // 0.8
GPGPU-Sim PTX: 39 (potential) branch divergence @  PC=0x1a58 (_1.ptx:1142) @!%p27 bra $Lt_10_52738;
GPGPU-Sim PTX:    immediate post dominator      @  PC=0x2040 (_1.ptx:1375) mov.f32 %f394, 0f3f4ccccd;   // 0.8
GPGPU-Sim PTX: 40 (potential) branch divergence @  PC=0x1ab8 (_1.ptx:1155) bra.uni $LDWendi___isnanf_192_1;
GPGPU-Sim PTX:    immediate post dominator      @  PC=0x2040 (_1.ptx:1375) mov.f32 %f394, 0f3f4ccccd;   // 0.8
GPGPU-Sim PTX: 41 (potential) branch divergence @  PC=0x1ad0 (_1.ptx:1159) @!%p29 bra $Lt_10_53250;
GPGPU-Sim PTX:    immediate post dominator      @  PC=0x2040 (_1.ptx:1375) mov.f32 %f394, 0f3f4ccccd;   // 0.8
GPGPU-Sim PTX: 42 (potential) branch divergence @  PC=0x1b20 (_1.ptx:1170) @!%p30 bra $Lt_10_53762;
GPGPU-Sim PTX:    immediate post dominator      @  PC=0x1b40 (_1.ptx:1177) mov.f32 %f268, %f284;
GPGPU-Sim PTX: 43 (potential) branch divergence @  PC=0x1b48 (_1.ptx:1178) bra.uni $LDWendi___isnanf_192_1;
GPGPU-Sim PTX:    immediate post dominator      @  PC=0x2040 (_1.ptx:1375) mov.f32 %f394, 0f3f4ccccd;   // 0.8
GPGPU-Sim PTX: 44 (potential) branch divergence @  PC=0x1b60 (_1.ptx:1183) @!%p31 bra $Lt_10_59394;
GPGPU-Sim PTX:    immediate post dominator      @  PC=0x2040 (_1.ptx:1375) mov.f32 %f394, 0f3f4ccccd;   // 0.8
GPGPU-Sim PTX: 45 (potential) branch divergence @  PC=0x1b88 (_1.ptx:1188) @!%p32 bra $Lt_10_59394;
GPGPU-Sim PTX:    immediate post dominator      @  PC=0x2040 (_1.ptx:1375) mov.f32 %f394, 0f3f4ccccd;   // 0.8
GPGPU-Sim PTX: 46 (potential) branch divergence @  PC=0x1ba0 (_1.ptx:1192) bra.uni $LDWendi___isnanf_192_1;
GPGPU-Sim PTX:    immediate post dominator      @  PC=0x2040 (_1.ptx:1375) mov.f32 %f394, 0f3f4ccccd;   // 0.8
GPGPU-Sim PTX: 47 (potential) branch divergence @  PC=0x1bd8 (_1.ptx:1202) @%p33 bra $Lt_10_54530;
GPGPU-Sim PTX:    immediate post dominator      @  PC=0x1c20 (_1.ptx:1216) sub.s32 %r64, %r64, 127;
GPGPU-Sim PTX: 48 (potential) branch divergence @  PC=0x1c10 (_1.ptx:1211) bra.uni $Lt_10_54274;
GPGPU-Sim PTX:    immediate post dominator      @  PC=0x1c20 (_1.ptx:1216) sub.s32 %r64, %r64, 127;
GPGPU-Sim PTX: 49 (potential) branch divergence @  PC=0x1c58 (_1.ptx:1224) @!%p34 bra $Lt_10_54786;
GPGPU-Sim PTX:    immediate post dominator      @  PC=0x1c78 (_1.ptx:1232) mov.f32 %f302, 0fbf800000;   // -1
GPGPU-Sim PTX: 50 (potential) branch divergence @  PC=0x1eb0 (_1.ptx:1312) @%p35 bra $Lt_10_55298;
GPGPU-Sim PTX:    immediate post dominator      @  PC=0x1ed8 (_1.ptx:1321) mov.f32 %f367, %f365;
GPGPU-Sim PTX: 51 (potential) branch divergence @  PC=0x1f98 (_1.ptx:1346) @!%p38 bra $Lt_10_55810;
GPGPU-Sim PTX:    immediate post dominator      @  PC=0x1fa8 (_1.ptx:1351) mov.f32 %f284, %f386;
GPGPU-Sim PTX: 52 (potential) branch divergence @  PC=0x2018 (_1.ptx:1365) @%p39 bra $Lt_10_56322;
GPGPU-Sim PTX:    immediate post dominator      @  PC=0x2038 (_1.ptx:1372) mov.f32 %f268, %f284;
GPGPU-Sim PTX: 53 (potential) branch divergence @  PC=0x2158 (_1.ptx:1419) @%p40 bra $L_10_42242;
GPGPU-Sim PTX:    immediate post dominator      @  PC=0x2170 (_1.ptx:1424) sub.s32 %r86, %r24, 1;
GPGPU-Sim PTX: 54 (potential) branch divergence @  PC=0x2168 (_1.ptx:1421) @%p41 bra $L_10_41474;
GPGPU-Sim PTX:    immediate post dominator      @  PC=0x2170 (_1.ptx:1424) sub.s32 %r86, %r24, 1;
GPGPU-Sim PTX: 55 (potential) branch divergence @  PC=0x2190 (_1.ptx:1428) @%p42 bra $Lt_10_56834;
GPGPU-Sim PTX:    immediate post dominator      @  PC=0x2288 (_1.ptx:1464) ld.global.u32 %r92, [%rd4+0];
GPGPU-Sim PTX: 56 (potential) branch divergence @  PC=0x2280 (_1.ptx:1461) @%p43 bra $Lt_10_57346;
GPGPU-Sim PTX:    immediate post dominator      @  PC=0x2288 (_1.ptx:1464) ld.global.u32 %r92, [%rd4+0];
GPGPU-Sim PTX: ... end of reconvergence points for _Z6renderPjP4Nodejjff
GPGPU-Sim PTX: ... done pre-decoding instructions for '_Z6renderPjP4Nodejjff'.
GPGPU-Sim PTX: instruction assembly for function '_ZN4dim3C1Ejjj'...   done.
GPGPU-Sim PTX: finding reconvergence points for '_ZN4dim3C1Ejjj'...
GPGPU-Sim PTX: Finding dominators for '_ZN4dim3C1Ejjj'...
GPGPU-Sim PTX: Finding immediate dominators for '_ZN4dim3C1Ejjj'...
GPGPU-Sim PTX: Finding postdominators for '_ZN4dim3C1Ejjj'...
GPGPU-Sim PTX: Finding immediate postdominators for '_ZN4dim3C1Ejjj'...
GPGPU-Sim PTX: pre-decoding instructions for '_ZN4dim3C1Ejjj'...
GPGPU-Sim PTX: reconvergence points for _ZN4dim3C1Ejjj...
GPGPU-Sim PTX: ... end of reconvergence points for _ZN4dim3C1Ejjj
GPGPU-Sim PTX: ... done pre-decoding instructions for '_ZN4dim3C1Ejjj'.
GPGPU-Sim PTX: finished parsing EMBEDDED .ptx file _1.ptx
Adding _cuobjdump_2.ptx with cubin handle 1
GPGPU-Sim PTX: extracting embedded .ptx to temporary file "_ptx_rvetyU"
Running: cat _ptx_rvetyU | sed 's/.version 1.5/.version 1.4/' | sed 's/, texmode_independent//' | sed 's/\(\.extern \.const\[1\] .b8 \w\+\)\[\]/\1\[1\]/' | sed 's/const\[.\]/const\[0\]/g' > _ptx2_jYRVRc
GPGPU-Sim PTX: generating ptxinfo using "$CUDA_INSTALL_PATH/bin/ptxas --gpu-name=sm_20 -v _ptx2_jYRVRc --output-file  /dev/null 2> _ptx_rvetyUinfo"
GPGPU-Sim PTX: Kernel '_Z6renderPjP4Nodejjff' : regs=45, lmem=4, smem=0, cmem=180
GPGPU-Sim PTX: removing ptxinfo using "rm -f _ptx_rvetyU _ptx2_jYRVRc _ptx_rvetyUinfo"
GPGPU-Sim PTX: loading globals with explicit initializers... 
GPGPU-Sim PTX: finished loading globals (0 bytes total).
GPGPU-Sim PTX: loading constants with explicit initializers...  done.
GPGPU-Sim PTX: __cudaRegisterVar: hostVar = 0x636760; deviceAddress = MView; deviceName = MView
GPGPU-Sim PTX: __cudaRegisterVar: Registering const memory space of 48 bytes
GPGPU-Sim PTX registering constant MView (48 bytes) to name mapping
GPGPU-Sim PTX: __cudaRegisterVar: hostVar = 0x6367a0; deviceAddress = cnode; deviceName = cnode
GPGPU-Sim PTX: __cudaRegisterVar: Registering const memory space of 160 bytes
GPGPU-Sim PTX registering constant cnode (160 bytes) to name mapping
GPGPU-Sim PTX: cudaMemcpyToSymbol: symbol = 0x6367a0
GPGPU-Sim PTX: starting gpgpu_ptx_sim_memcpy_symbol with hostVar 0x0x6367a0
GPGPU-Sim PTX: gpgpu_ptx_sim_memcpy_symbol: Found PTX symbol w/ hostVar=0x6367a0
GPGPU-Sim PTX: gpgpu_ptx_sim_memcpy_symbol: copying const memory 160 bytes  to  symbol cnode+0 @0x100 ...
GPGPU-Sim PTX: cudaMemcpyToSymbol: symbol = 0x636760
GPGPU-Sim PTX: starting gpgpu_ptx_sim_memcpy_symbol with hostVar 0x0x636760
GPGPU-Sim PTX: gpgpu_ptx_sim_memcpy_symbol: Found PTX symbol w/ hostVar=0x636760
GPGPU-Sim PTX: gpgpu_ptx_sim_memcpy_symbol: copying const memory 48 bytes  to  symbol MView+0 @0x200 ...

GPGPU-Sim PTX: cudaLaunch for 0x0x40a250 (mode=performance simulation) on stream 0
GPGPU-Sim PTX: pushing kernel '_Z6renderPjP4Nodejjff' to stream 0, gridDim= (16,32,1) blockDim = (16,8,1) 
kernel '_Z6renderPjP4Nodejjff' transfer to GPU hardware scheduler
GPGPU-Sim uArch: Shader 1 bind to kernel 1 '_Z6renderPjP4Nodejjff'
GPGPU-Sim uArch: CTA/core = 5, limited by: regs
GPGPU-Sim uArch: core:  1, cta: 0 initialized @(1,0)
GPGPU-Sim uArch: Shader 2 bind to kernel 1 '_Z6renderPjP4Nodejjff'
GPGPU-Sim uArch: core:  2, cta: 0 initialized @(1,0)
GPGPU-Sim uArch: Shader 3 bind to kernel 1 '_Z6renderPjP4Nodejjff'
GPGPU-Sim uArch: core:  3, cta: 0 initialized @(1,0)
GPGPU-Sim uArch: Shader 4 bind to kernel 1 '_Z6renderPjP4Nodejjff'
GPGPU-Sim uArch: core:  4, cta: 0 initialized @(1,0)
GPGPU-Sim uArch: Shader 5 bind to kernel 1 '_Z6renderPjP4Nodejjff'
GPGPU-Sim uArch: core:  5, cta: 0 initialized @(1,0)
GPGPU-Sim uArch: Shader 6 bind to kernel 1 '_Z6renderPjP4Nodejjff'
GPGPU-Sim uArch: core:  6, cta: 0 initialized @(1,0)
GPGPU-Sim uArch: Shader 7 bind to kernel 1 '_Z6renderPjP4Nodejjff'
GPGPU-Sim uArch: core:  7, cta: 0 initialized @(1,0)
GPGPU-Sim uArch: Shader 8 bind to kernel 1 '_Z6renderPjP4Nodejjff'
GPGPU-Sim uArch: core:  8, cta: 0 initialized @(1,0)
GPGPU-Sim uArch: Shader 9 bind to kernel 1 '_Z6renderPjP4Nodejjff'
GPGPU-Sim uArch: core:  9, cta: 0 initialized @(1,0)
GPGPU-Sim uArch: Shader 10 bind to kernel 1 '_Z6renderPjP4Nodejjff'
GPGPU-Sim uArch: core: 10, cta: 0 initialized @(1,0)
GPGPU-Sim uArch: Shader 11 bind to kernel 1 '_Z6renderPjP4Nodejjff'
GPGPU-Sim uArch: core: 11, cta: 0 initialized @(1,0)
GPGPU-Sim uArch: Shader 12 bind to kernel 1 '_Z6renderPjP4Nodejjff'
GPGPU-Sim uArch: core: 12, cta: 0 initialized @(1,0)
GPGPU-Sim uArch: Shader 13 bind to kernel 1 '_Z6renderPjP4Nodejjff'
GPGPU-Sim uArch: core: 13, cta: 0 initialized @(1,0)
GPGPU-Sim uArch: Shader 14 bind to kernel 1 '_Z6renderPjP4Nodejjff'
GPGPU-Sim uArch: core: 14, cta: 0 initialized @(1,0)
GPGPU-Sim uArch: Shader 0 bind to kernel 1 '_Z6renderPjP4Nodejjff'
GPGPU-Sim uArch: core:  0, cta: 0 initialized @(1,0)
GPGPU-Sim uArch: core:  1, cta: 1 initialized @(2,0)
GPGPU-Sim uArch: core:  2, cta: 1 initialized @(2,0)
GPGPU-Sim uArch: core:  3, cta: 1 initialized @(2,0)
GPGPU-Sim uArch: core:  4, cta: 1 initialized @(2,0)
GPGPU-Sim uArch: core:  5, cta: 1 initialized @(2,0)
GPGPU-Sim uArch: core:  6, cta: 1 initialized @(2,0)
GPGPU-Sim uArch: core:  7, cta: 1 initialized @(2,0)
GPGPU-Sim uArch: core:  8, cta: 1 initialized @(2,0)
GPGPU-Sim uArch: core:  9, cta: 1 initialized @(2,0)
GPGPU-Sim uArch: core: 10, cta: 1 initialized @(2,0)
GPGPU-Sim uArch: core: 11, cta: 1 initialized @(2,0)
GPGPU-Sim uArch: core: 12, cta: 1 initialized @(2,0)
GPGPU-Sim uArch: core: 13, cta: 1 initialized @(2,0)
GPGPU-Sim uArch: core: 14, cta: 1 initialized @(2,0)
GPGPU-Sim uArch: core:  0, cta: 1 initialized @(2,0)
GPGPU-Sim uArch: core:  1, cta: 2 initialized @(3,0)
GPGPU-Sim uArch: core:  2, cta: 2 initialized @(3,0)
GPGPU-Sim uArch: core:  3, cta: 2 initialized @(3,0)
GPGPU-Sim uArch: core:  4, cta: 2 initialized @(3,0)
GPGPU-Sim uArch: core:  5, cta: 2 initialized @(3,0)
GPGPU-Sim uArch: core:  6, cta: 2 initialized @(3,0)
GPGPU-Sim uArch: core:  7, cta: 2 initialized @(3,0)
GPGPU-Sim uArch: core:  8, cta: 2 initialized @(3,0)
GPGPU-Sim uArch: core:  9, cta: 2 initialized @(3,0)
GPGPU-Sim uArch: core: 10, cta: 2 initialized @(3,0)
GPGPU-Sim uArch: core: 11, cta: 2 initialized @(3,0)
GPGPU-Sim uArch: core: 12, cta: 2 initialized @(3,0)
GPGPU-Sim uArch: core: 13, cta: 2 initialized @(3,0)
GPGPU-Sim uArch: core: 14, cta: 2 initialized @(3,0)
GPGPU-Sim uArch: core:  0, cta: 2 initialized @(3,0)
GPGPU-Sim uArch: core:  1, cta: 3 initialized @(4,0)
GPGPU-Sim uArch: core:  2, cta: 3 initialized @(4,0)
GPGPU-Sim uArch: core:  3, cta: 3 initialized @(4,0)
GPGPU-Sim uArch: core:  4, cta: 3 initialized @(4,0)
GPGPU-Sim uArch: core:  5, cta: 3 initialized @(4,0)
GPGPU-Sim uArch: core:  6, cta: 3 initialized @(4,0)
GPGPU-Sim uArch: core:  7, cta: 3 initialized @(4,0)
GPGPU-Sim uArch: core:  8, cta: 3 initialized @(4,0)
GPGPU-Sim uArch: core:  9, cta: 3 initialized @(4,0)
GPGPU-Sim uArch: core: 10, cta: 3 initialized @(4,0)
GPGPU-Sim uArch: core: 11, cta: 3 initialized @(4,0)
GPGPU-Sim uArch: core: 12, cta: 3 initialized @(4,0)
GPGPU-Sim uArch: core: 13, cta: 3 initialized @(4,0)
GPGPU-Sim uArch: core: 14, cta: 3 initialized @(4,0)
GPGPU-Sim uArch: core:  0, cta: 3 initialized @(4,0)
GPGPU-Sim uArch: core:  1, cta: 4 initialized @(5,0)
GPGPU-Sim uArch: core:  2, cta: 4 initialized @(5,0)
GPGPU-Sim uArch: core:  3, cta: 4 initialized @(5,0)
GPGPU-Sim uArch: core:  4, cta: 4 initialized @(5,0)
GPGPU-Sim uArch: core:  5, cta: 4 initialized @(5,0)
GPGPU-Sim uArch: core:  6, cta: 4 initialized @(5,0)
GPGPU-Sim uArch: core:  7, cta: 4 initialized @(5,0)
GPGPU-Sim uArch: core:  8, cta: 4 initialized @(5,0)
GPGPU-Sim uArch: core:  9, cta: 4 initialized @(5,0)
GPGPU-Sim uArch: core: 10, cta: 4 initialized @(5,0)
GPGPU-Sim uArch: core: 11, cta: 4 initialized @(5,0)
GPGPU-Sim uArch: core: 12, cta: 4 initialized @(5,0)
GPGPU-Sim uArch: core: 13, cta: 4 initialized @(5,0)
GPGPU-Sim uArch: core: 14, cta: 4 initialized @(5,0)
GPGPU-Sim uArch: core:  0, cta: 4 initialized @(5,0)
GPGPU-Sim uArch: cycles simulated: 500  inst.: 36032 (ipc=72.1) sim_rate=36032 (inst/sec) elapsed = 0:0:00:01 / Wed Nov 16 02:48:50 2022
GPGPU-Sim PTX: 100000 instructions simulated : ctaid=(7,0,0) tid=(15,1,0)
GPGPU-Sim PTX: 200000 instructions simulated : ctaid=(7,3,0) tid=(15,5,0)
GPGPU-Sim PTX: 300000 instructions simulated : ctaid=(2,0,0) tid=(15,1,0)
GPGPU-Sim uArch: cycles simulated: 5000  inst.: 301184 (ipc=60.2) sim_rate=150592 (inst/sec) elapsed = 0:0:00:02 / Wed Nov 16 02:48:51 2022
GPGPU-Sim PTX: 400000 instructions simulated : ctaid=(4,0,0) tid=(15,7,0)
GPGPU-Sim PTX: 500000 instructions simulated : ctaid=(14,1,0) tid=(15,5,0)
GPGPU-Sim PTX: 600000 instructions simulated : ctaid=(14,3,0) tid=(15,5,0)
GPGPU-Sim PTX: 700000 instructions simulated : ctaid=(7,4,0) tid=(15,1,0)
GPGPU-Sim PTX: 800000 instructions simulated : ctaid=(1,0,0) tid=(15,7,0)
GPGPU-Sim PTX: 900000 instructions simulated : ctaid=(5,1,0) tid=(15,3,0)
GPGPU-Sim PTX: 1000000 instructions simulated : ctaid=(4,2,0) tid=(15,7,0)
GPGPU-Sim PTX: 1100000 instructions simulated : ctaid=(13,2,0) tid=(15,7,0)
GPGPU-Sim PTX: 1200000 instructions simulated : ctaid=(4,2,0) tid=(15,5,0)
GPGPU-Sim uArch: cycles simulated: 9000  inst.: 1272192 (ipc=141.4) sim_rate=424064 (inst/sec) elapsed = 0:0:00:03 / Wed Nov 16 02:48:52 2022
GPGPU-Sim PTX: 1300000 instructions simulated : ctaid=(14,3,0) tid=(15,3,0)
GPGPU-Sim PTX: 1400000 instructions simulated : ctaid=(6,0,0) tid=(15,7,0)
GPGPU-Sim PTX: 1500000 instructions simulated : ctaid=(7,3,0) tid=(15,1,0)
GPGPU-Sim PTX: 1600000 instructions simulated : ctaid=(13,3,0) tid=(15,1,0)
GPGPU-Sim PTX: 1700000 instructions simulated : ctaid=(0,1,0) tid=(15,3,0)
GPGPU-Sim PTX: 1800000 instructions simulated : ctaid=(13,1,0) tid=(15,1,0)
GPGPU-Sim PTX: 1900000 instructions simulated : ctaid=(8,2,0) tid=(15,5,0)
GPGPU-Sim PTX: 2000000 instructions simulated : ctaid=(12,0,0) tid=(15,7,0)
GPGPU-Sim PTX: 2100000 instructions simulated : ctaid=(8,1,0) tid=(15,5,0)
GPGPU-Sim PTX: 2200000 instructions simulated : ctaid=(3,2,0) tid=(15,5,0)
GPGPU-Sim PTX: 2300000 instructions simulated : ctaid=(0,1,0) tid=(15,5,0)
GPGPU-Sim PTX: 2400000 instructions simulated : ctaid=(1,4,0) tid=(15,5,0)
GPGPU-Sim PTX: 2500000 instructions simulated : ctaid=(4,3,0) tid=(15,3,0)
GPGPU-Sim PTX: 2600000 instructions simulated : ctaid=(5,3,0) tid=(15,5,0)
GPGPU-Sim PTX: 2700000 instructions simulated : ctaid=(11,0,0) tid=(15,1,0)
GPGPU-Sim PTX: 2800000 instructions simulated : ctaid=(10,0,0) tid=(15,7,0)
GPGPU-Sim PTX: 2900000 instructions simulated : ctaid=(13,2,0) tid=(15,3,0)
GPGPU-Sim uArch: cycles simulated: 11500  inst.: 2899488 (ipc=252.1) sim_rate=724872 (inst/sec) elapsed = 0:0:00:04 / Wed Nov 16 02:48:53 2022
GPGPU-Sim PTX: 3000000 instructions simulated : ctaid=(6,1,0) tid=(15,5,0)
GPGPU-Sim PTX: 3100000 instructions simulated : ctaid=(3,4,0) tid=(15,1,0)
GPGPU-Sim PTX: 3200000 instructions simulated : ctaid=(5,1,0) tid=(15,3,0)
GPGPU-Sim PTX: 3300000 instructions simulated : ctaid=(11,3,0) tid=(15,7,0)
GPGPU-Sim PTX: 3400000 instructions simulated : ctaid=(0,4,0) tid=(15,7,0)
GPGPU-Sim PTX: 3500000 instructions simulated : ctaid=(11,0,0) tid=(15,3,0)
GPGPU-Sim PTX: 3600000 instructions simulated : ctaid=(14,0,0) tid=(15,3,0)
GPGPU-Sim PTX: 3700000 instructions simulated : ctaid=(10,3,0) tid=(15,5,0)
GPGPU-Sim PTX: 3800000 instructions simulated : ctaid=(2,0,0) tid=(15,7,0)
GPGPU-Sim PTX: 3900000 instructions simulated : ctaid=(4,2,0) tid=(15,1,0)
GPGPU-Sim uArch: cycles simulated: 14000  inst.: 3883104 (ipc=277.4) sim_rate=776620 (inst/sec) elapsed = 0:0:00:05 / Wed Nov 16 02:48:54 2022
GPGPU-Sim PTX: 4000000 instructions simulated : ctaid=(7,4,0) tid=(15,3,0)
GPGPU-Sim PTX: 4100000 instructions simulated : ctaid=(3,2,0) tid=(15,3,0)
GPGPU-Sim PTX: 4200000 instructions simulated : ctaid=(1,4,0) tid=(15,5,0)
GPGPU-Sim PTX: 4300000 instructions simulated : ctaid=(11,2,0) tid=(15,7,0)
GPGPU-Sim PTX: 4400000 instructions simulated : ctaid=(1,4,0) tid=(15,1,0)
GPGPU-Sim PTX: 4500000 instructions simulated : ctaid=(8,3,0) tid=(15,3,0)
GPGPU-Sim PTX: 4600000 instructions simulated : ctaid=(3,2,0) tid=(12,0,0)
GPGPU-Sim PTX: 4700000 instructions simulated : ctaid=(8,0,0) tid=(6,2,0)
GPGPU-Sim PTX: 4800000 instructions simulated : ctaid=(7,0,0) tid=(15,2,0)
GPGPU-Sim PTX: 4900000 instructions simulated : ctaid=(8,2,0) tid=(15,2,0)
GPGPU-Sim PTX: 5000000 instructions simulated : ctaid=(1,0,0) tid=(15,0,0)
GPGPU-Sim PTX: 5100000 instructions simulated : ctaid=(6,3,0) tid=(15,2,0)
GPGPU-Sim PTX: 5200000 instructions simulated : ctaid=(2,0,0) tid=(15,4,0)
GPGPU-Sim PTX: 5300000 instructions simulated : ctaid=(6,3,0) tid=(15,0,0)
GPGPU-Sim PTX: 5400000 instructions simulated : ctaid=(8,2,0) tid=(8,2,0)
GPGPU-Sim PTX: 5500000 instructions simulated : ctaid=(3,3,0) tid=(9,0,0)
GPGPU-Sim uArch: cycles simulated: 17000  inst.: 5380171 (ipc=316.5) sim_rate=896695 (inst/sec) elapsed = 0:0:00:06 / Wed Nov 16 02:48:55 2022
GPGPU-Sim PTX: 5600000 instructions simulated : ctaid=(0,4,0) tid=(3,1,0)
GPGPU-Sim PTX: 5700000 instructions simulated : ctaid=(8,0,0) tid=(5,7,0)
GPGPU-Sim PTX: 5800000 instructions simulated : ctaid=(2,3,0) tid=(4,3,0)
GPGPU-Sim PTX: 5900000 instructions simulated : ctaid=(12,1,0) tid=(7,5,0)
GPGPU-Sim PTX: 6000000 instructions simulated : ctaid=(14,3,0) tid=(15,6,0)
GPGPU-Sim PTX: 6100000 instructions simulated : ctaid=(10,4,0) tid=(11,1,0)
GPGPU-Sim PTX: 6200000 instructions simulated : ctaid=(2,1,0) tid=(11,3,0)
GPGPU-Sim PTX: 6300000 instructions simulated : ctaid=(11,2,0) tid=(11,1,0)
GPGPU-Sim PTX: 6400000 instructions simulated : ctaid=(8,2,0) tid=(11,1,0)
GPGPU-Sim PTX: 6500000 instructions simulated : ctaid=(14,2,0) tid=(6,2,0)
GPGPU-Sim uArch: cycles simulated: 20000  inst.: 6354756 (ipc=317.7) sim_rate=907822 (inst/sec) elapsed = 0:0:00:07 / Wed Nov 16 02:48:56 2022
GPGPU-Sim PTX: 6600000 instructions simulated : ctaid=(1,4,0) tid=(11,3,0)
GPGPU-Sim PTX: 6700000 instructions simulated : ctaid=(11,3,0) tid=(11,5,0)
GPGPU-Sim PTX: 6800000 instructions simulated : ctaid=(3,0,0) tid=(11,1,0)
GPGPU-Sim PTX: 6900000 instructions simulated : ctaid=(14,0,0) tid=(11,3,0)
GPGPU-Sim PTX: 7000000 instructions simulated : ctaid=(7,4,0) tid=(11,1,0)
GPGPU-Sim PTX: 7100000 instructions simulated : ctaid=(13,1,0) tid=(11,7,0)
GPGPU-Sim PTX: 7200000 instructions simulated : ctaid=(9,2,0) tid=(11,5,0)
GPGPU-Sim PTX: 7300000 instructions simulated : ctaid=(4,2,0) tid=(11,5,0)
GPGPU-Sim PTX: 7400000 instructions simulated : ctaid=(4,2,0) tid=(11,3,0)
GPGPU-Sim PTX: 7500000 instructions simulated : ctaid=(0,2,0) tid=(11,3,0)
GPGPU-Sim uArch: cycles simulated: 22500  inst.: 7301316 (ipc=324.5) sim_rate=912664 (inst/sec) elapsed = 0:0:00:08 / Wed Nov 16 02:48:57 2022
GPGPU-Sim PTX: 7600000 instructions simulated : ctaid=(9,0,0) tid=(11,1,0)
GPGPU-Sim PTX: 7700000 instructions simulated : ctaid=(10,3,0) tid=(11,5,0)
GPGPU-Sim PTX: 7800000 instructions simulated : ctaid=(9,3,0) tid=(11,3,0)
GPGPU-Sim PTX: 7900000 instructions simulated : ctaid=(13,1,0) tid=(11,3,0)
GPGPU-Sim PTX: 8000000 instructions simulated : ctaid=(12,0,0) tid=(11,3,0)
GPGPU-Sim PTX: 8100000 instructions simulated : ctaid=(0,1,0) tid=(11,3,0)
GPGPU-Sim PTX: 8200000 instructions simulated : ctaid=(1,0,0) tid=(11,5,0)
GPGPU-Sim PTX: 8300000 instructions simulated : ctaid=(11,3,0) tid=(11,5,0)
GPGPU-Sim PTX: 8400000 instructions simulated : ctaid=(8,3,0) tid=(11,1,0)
GPGPU-Sim PTX: 8500000 instructions simulated : ctaid=(6,3,0) tid=(11,1,0)
GPGPU-Sim PTX: 8600000 instructions simulated : ctaid=(11,1,0) tid=(11,5,0)
GPGPU-Sim PTX: 8700000 instructions simulated : ctaid=(2,0,0) tid=(15,4,0)
GPGPU-Sim PTX: 8800000 instructions simulated : ctaid=(5,1,0) tid=(13,6,0)
GPGPU-Sim PTX: 8900000 instructions simulated : ctaid=(15,1,0) tid=(11,1,0)
GPGPU-Sim uArch: cycles simulated: 25500  inst.: 8683556 (ipc=340.5) sim_rate=964839 (inst/sec) elapsed = 0:0:00:09 / Wed Nov 16 02:48:58 2022
GPGPU-Sim PTX: 9000000 instructions simulated : ctaid=(5,0,0) tid=(0,7,0)
GPGPU-Sim PTX: 9100000 instructions simulated : ctaid=(14,3,0) tid=(14,0,0)
GPGPU-Sim PTX: 9200000 instructions simulated : ctaid=(12,1,0) tid=(5,2,0)
GPGPU-Sim PTX: 9300000 instructions simulated : ctaid=(1,2,0) tid=(7,7,0)
GPGPU-Sim PTX: 9400000 instructions simulated : ctaid=(6,0,0) tid=(9,5,0)
GPGPU-Sim PTX: 9500000 instructions simulated : ctaid=(10,4,0) tid=(10,4,0)
GPGPU-Sim PTX: 9600000 instructions simulated : ctaid=(0,4,0) tid=(10,0,0)
GPGPU-Sim PTX: 9700000 instructions simulated : ctaid=(6,0,0) tid=(8,0,0)
GPGPU-Sim PTX: 9800000 instructions simulated : ctaid=(5,0,0) tid=(5,2,0)
GPGPU-Sim PTX: 9900000 instructions simulated : ctaid=(0,3,0) tid=(15,7,0)
GPGPU-Sim PTX: 10000000 instructions simulated : ctaid=(4,4,0) tid=(4,2,0)
GPGPU-Sim PTX: 10100000 instructions simulated : ctaid=(8,4,0) tid=(8,6,0)
GPGPU-Sim PTX: 10200000 instructions simulated : ctaid=(15,0,0) tid=(7,6,0)
GPGPU-Sim uArch: cycles simulated: 28000  inst.: 9958510 (ipc=355.7) sim_rate=995851 (inst/sec) elapsed = 0:0:00:10 / Wed Nov 16 02:48:59 2022
GPGPU-Sim PTX: 10300000 instructions simulated : ctaid=(5,3,0) tid=(7,2,0)
GPGPU-Sim PTX: 10400000 instructions simulated : ctaid=(4,0,0) tid=(14,6,0)
GPGPU-Sim uArch: Shader 14 finished CTA #0 (28540,0), 4 CTAs running
GPGPU-Sim uArch: core: 14, cta: 0 initialized @(28541,0)
GPGPU-Sim uArch: Shader 6 finished CTA #2 (28546,0), 4 CTAs running
GPGPU-Sim uArch: core:  6, cta: 2 initialized @(28547,0)
GPGPU-Sim uArch: Shader 0 finished CTA #0 (28594,0), 4 CTAs running
GPGPU-Sim uArch: core:  0, cta: 0 initialized @(28595,0)
GPGPU-Sim uArch: Shader 1 finished CTA #1 (28626,0), 4 CTAs running
GPGPU-Sim uArch: core:  1, cta: 1 initialized @(28627,0)
GPGPU-Sim uArch: Shader 5 finished CTA #2 (28627,0), 4 CTAs running
GPGPU-Sim uArch: core:  5, cta: 2 initialized @(28628,0)
GPGPU-Sim uArch: Shader 4 finished CTA #2 (28628,0), 4 CTAs running
GPGPU-Sim uArch: core:  4, cta: 2 initialized @(28629,0)
GPGPU-Sim uArch: Shader 8 finished CTA #3 (28634,0), 4 CTAs running
GPGPU-Sim uArch: core:  8, cta: 3 initialized @(28635,0)
GPGPU-Sim uArch: Shader 1 finished CTA #0 (28648,0), 4 CTAs running
GPGPU-Sim uArch: core:  1, cta: 0 initialized @(28649,0)
GPGPU-Sim uArch: Shader 0 finished CTA #1 (28654,0), 4 CTAs running
GPGPU-Sim uArch: core:  0, cta: 1 initialized @(28655,0)
GPGPU-Sim uArch: Shader 8 finished CTA #2 (28658,0), 4 CTAs running
GPGPU-Sim uArch: core:  8, cta: 2 initialized @(28659,0)
GPGPU-Sim uArch: Shader 0 finished CTA #3 (28664,0), 4 CTAs running
GPGPU-Sim uArch: Shader 1 finished CTA #2 (28664,0), 4 CTAs running
GPGPU-Sim uArch: core:  0, cta: 3 initialized @(28665,0)
GPGPU-Sim uArch: core:  1, cta: 2 initialized @(28665,0)
GPGPU-Sim uArch: Shader 1 finished CTA #4 (28682,0), 4 CTAs running
GPGPU-Sim uArch: core:  1, cta: 4 initialized @(28683,0)
GPGPU-Sim uArch: Shader 0 finished CTA #2 (28684,0), 4 CTAs running
GPGPU-Sim uArch: core:  0, cta: 2 initialized @(28685,0)
GPGPU-Sim uArch: Shader 8 finished CTA #4 (28688,0), 4 CTAs running
GPGPU-Sim uArch: core:  8, cta: 4 initialized @(28689,0)
GPGPU-Sim uArch: Shader 2 finished CTA #1 (28690,0), 4 CTAs running
GPGPU-Sim uArch: core:  2, cta: 1 initialized @(28691,0)
GPGPU-Sim uArch: Shader 3 finished CTA #0 (28694,0), 4 CTAs running
GPGPU-Sim uArch: core:  3, cta: 0 initialized @(28695,0)
GPGPU-Sim uArch: Shader 6 finished CTA #4 (28698,0), 4 CTAs running
GPGPU-Sim uArch: core:  6, cta: 4 initialized @(28699,0)
GPGPU-Sim uArch: Shader 3 finished CTA #1 (28706,0), 4 CTAs running
GPGPU-Sim uArch: core:  3, cta: 1 initialized @(28707,0)
GPGPU-Sim uArch: Shader 1 finished CTA #3 (28726,0), 4 CTAs running
GPGPU-Sim uArch: core:  1, cta: 3 initialized @(28727,0)
GPGPU-Sim uArch: Shader 3 finished CTA #2 (28730,0), 4 CTAs running
GPGPU-Sim uArch: core:  3, cta: 2 initialized @(28731,0)
GPGPU-Sim uArch: Shader 4 finished CTA #1 (28735,0), 4 CTAs running
GPGPU-Sim uArch: Shader 6 finished CTA #3 (28735,0), 4 CTAs running
GPGPU-Sim uArch: core:  4, cta: 1 initialized @(28736,0)
GPGPU-Sim uArch: core:  6, cta: 3 initialized @(28736,0)
GPGPU-Sim uArch: Shader 0 finished CTA #4 (28746,0), 4 CTAs running
GPGPU-Sim uArch: core:  0, cta: 4 initialized @(28747,0)
GPGPU-Sim uArch: Shader 2 finished CTA #0 (28754,0), 4 CTAs running
GPGPU-Sim uArch: Shader 3 finished CTA #4 (28754,0), 4 CTAs running
GPGPU-Sim uArch: core:  2, cta: 0 initialized @(28755,0)
GPGPU-Sim uArch: core:  3, cta: 4 initialized @(28755,0)
GPGPU-Sim uArch: Shader 4 finished CTA #3 (28766,0), 4 CTAs running
GPGPU-Sim uArch: core:  4, cta: 3 initialized @(28767,0)
GPGPU-Sim uArch: Shader 2 finished CTA #2 (28770,0), 4 CTAs running
GPGPU-Sim uArch: Shader 5 finished CTA #3 (28770,0), 4 CTAs running
GPGPU-Sim uArch: core:  5, cta: 3 initialized @(28771,0)
GPGPU-Sim uArch: core:  2, cta: 2 initialized @(28771,0)
GPGPU-Sim uArch: Shader 9 finished CTA #3 (28774,0), 4 CTAs running
GPGPU-Sim uArch: core:  9, cta: 3 initialized @(28775,0)
GPGPU-Sim uArch: Shader 4 finished CTA #4 (28775,0), 4 CTAs running
GPGPU-Sim uArch: core:  4, cta: 4 initialized @(28776,0)
GPGPU-Sim uArch: Shader 2 finished CTA #3 (28782,0), 4 CTAs running
GPGPU-Sim uArch: core:  2, cta: 3 initialized @(28783,0)
GPGPU-Sim uArch: Shader 5 finished CTA #4 (28800,0), 4 CTAs running
GPGPU-Sim uArch: core:  5, cta: 4 initialized @(28801,0)
GPGPU-Sim uArch: Shader 9 finished CTA #4 (28805,0), 4 CTAs running
GPGPU-Sim uArch: core:  9, cta: 4 initialized @(28806,0)
GPGPU-Sim uArch: Shader 7 finished CTA #3 (28823,0), 4 CTAs running
GPGPU-Sim uArch: core:  7, cta: 3 initialized @(28824,0)
GPGPU-Sim uArch: Shader 7 finished CTA #4 (28850,0), 4 CTAs running
GPGPU-Sim uArch: core:  7, cta: 4 initialized @(28851,0)
GPGPU-Sim PTX: 10500000 instructions simulated : ctaid=(13,4,0) tid=(2,4,0)
GPGPU-Sim uArch: Shader 2 finished CTA #4 (28899,0), 4 CTAs running
GPGPU-Sim uArch: core:  2, cta: 4 initialized @(28900,0)
GPGPU-Sim uArch: Shader 3 finished CTA #3 (28924,0), 4 CTAs running
GPGPU-Sim uArch: core:  3, cta: 3 initialized @(28925,0)
GPGPU-Sim uArch: Shader 10 finished CTA #4 (28942,0), 4 CTAs running
GPGPU-Sim uArch: core: 10, cta: 4 initialized @(28943,0)
GPGPU-Sim PTX: 10600000 instructions simulated : ctaid=(3,1,0) tid=(13,0,0)
GPGPU-Sim PTX: 10700000 instructions simulated : ctaid=(9,5,0) tid=(0,0,0)
GPGPU-Sim PTX: 10800000 instructions simulated : ctaid=(7,1,0) tid=(12,1,0)
GPGPU-Sim PTX: 10900000 instructions simulated : ctaid=(5,0,0) tid=(0,7,0)
GPGPU-Sim PTX: 11000000 instructions simulated : ctaid=(9,2,0) tid=(4,3,0)
GPGPU-Sim uArch: cycles simulated: 30500  inst.: 10792366 (ipc=353.8) sim_rate=981124 (inst/sec) elapsed = 0:0:00:11 / Wed Nov 16 02:49:00 2022
GPGPU-Sim PTX: 11100000 instructions simulated : ctaid=(4,1,0) tid=(4,4,0)
GPGPU-Sim PTX: 11200000 instructions simulated : ctaid=(5,5,0) tid=(10,5,0)
GPGPU-Sim PTX: 11300000 instructions simulated : ctaid=(12,5,0) tid=(4,6,0)
GPGPU-Sim PTX: 11400000 instructions simulated : ctaid=(15,6,0) tid=(4,5,0)
GPGPU-Sim PTX: 11500000 instructions simulated : ctaid=(12,5,0) tid=(13,2,0)
GPGPU-Sim PTX: 11600000 instructions simulated : ctaid=(8,2,0) tid=(0,2,0)
GPGPU-Sim PTX: 11700000 instructions simulated : ctaid=(4,0,0) tid=(10,0,0)
GPGPU-Sim PTX: 11800000 instructions simulated : ctaid=(9,1,0) tid=(5,6,0)
GPGPU-Sim PTX: 11900000 instructions simulated : ctaid=(6,5,0) tid=(6,0,0)
GPGPU-Sim PTX: 12000000 instructions simulated : ctaid=(14,4,0) tid=(1,1,0)
GPGPU-Sim uArch: Shader 14 finished CTA #2 (32272,0), 4 CTAs running
GPGPU-Sim uArch: core: 14, cta: 2 initialized @(32273,0)
GPGPU-Sim PTX: 12100000 instructions simulated : ctaid=(3,6,0) tid=(4,6,0)
GPGPU-Sim uArch: cycles simulated: 32500  inst.: 11830341 (ipc=364.0) sim_rate=985861 (inst/sec) elapsed = 0:0:00:12 / Wed Nov 16 02:49:01 2022
GPGPU-Sim PTX: 12200000 instructions simulated : ctaid=(8,4,0) tid=(11,7,0)
GPGPU-Sim PTX: 12300000 instructions simulated : ctaid=(11,0,0) tid=(2,3,0)
GPGPU-Sim uArch: Shader 7 finished CTA #2 (32861,0), 4 CTAs running
GPGPU-Sim uArch: core:  7, cta: 2 initialized @(32862,0)
GPGPU-Sim PTX: 12400000 instructions simulated : ctaid=(7,6,0) tid=(1,4,0)
GPGPU-Sim PTX: 12500000 instructions simulated : ctaid=(15,5,0) tid=(12,1,0)
GPGPU-Sim PTX: 12600000 instructions simulated : ctaid=(10,0,0) tid=(0,0,0)
GPGPU-Sim PTX: 12700000 instructions simulated : ctaid=(12,6,0) tid=(13,7,0)
GPGPU-Sim PTX: 12800000 instructions simulated : ctaid=(8,4,0) tid=(1,2,0)
GPGPU-Sim PTX: 12900000 instructions simulated : ctaid=(13,6,0) tid=(5,1,0)
GPGPU-Sim PTX: 13000000 instructions simulated : ctaid=(15,6,0) tid=(3,4,0)
GPGPU-Sim PTX: 13100000 instructions simulated : ctaid=(10,0,0) tid=(15,1,0)
GPGPU-Sim PTX: 13200000 instructions simulated : ctaid=(1,7,0) tid=(7,1,0)
GPGPU-Sim PTX: 13300000 instructions simulated : ctaid=(14,5,0) tid=(6,3,0)
GPGPU-Sim uArch: cycles simulated: 34500  inst.: 12965542 (ipc=375.8) sim_rate=997349 (inst/sec) elapsed = 0:0:00:13 / Wed Nov 16 02:49:02 2022
GPGPU-Sim PTX: 13400000 instructions simulated : ctaid=(7,6,0) tid=(6,1,0)
GPGPU-Sim PTX: 13500000 instructions simulated : ctaid=(11,5,0) tid=(13,4,0)
GPGPU-Sim PTX: 13600000 instructions simulated : ctaid=(7,0,0) tid=(8,2,0)
GPGPU-Sim PTX: 13700000 instructions simulated : ctaid=(0,6,0) tid=(7,4,0)
GPGPU-Sim PTX: 13800000 instructions simulated : ctaid=(6,5,0) tid=(14,6,0)
GPGPU-Sim PTX: 13900000 instructions simulated : ctaid=(9,5,0) tid=(8,7,0)
GPGPU-Sim PTX: 14000000 instructions simulated : ctaid=(7,4,0) tid=(6,3,0)
GPGPU-Sim PTX: 14100000 instructions simulated : ctaid=(6,4,0) tid=(14,1,0)
GPGPU-Sim PTX: 14200000 instructions simulated : ctaid=(9,2,0) tid=(4,2,0)
GPGPU-Sim PTX: 14300000 instructions simulated : ctaid=(9,4,0) tid=(1,7,0)
GPGPU-Sim PTX: 14400000 instructions simulated : ctaid=(8,0,0) tid=(10,1,0)
GPGPU-Sim uArch: cycles simulated: 36500  inst.: 14040554 (ipc=384.7) sim_rate=1002896 (inst/sec) elapsed = 0:0:00:14 / Wed Nov 16 02:49:03 2022
GPGPU-Sim PTX: 14500000 instructions simulated : ctaid=(3,6,0) tid=(12,7,0)
GPGPU-Sim PTX: 14600000 instructions simulated : ctaid=(15,5,0) tid=(11,0,0)
GPGPU-Sim PTX: 14700000 instructions simulated : ctaid=(11,0,0) tid=(7,4,0)
GPGPU-Sim PTX: 14800000 instructions simulated : ctaid=(0,6,0) tid=(6,5,0)
GPGPU-Sim PTX: 14900000 instructions simulated : ctaid=(4,1,0) tid=(12,1,0)
GPGPU-Sim PTX: 15000000 instructions simulated : ctaid=(7,0,0) tid=(0,0,0)
GPGPU-Sim PTX: 15100000 instructions simulated : ctaid=(9,1,0) tid=(4,5,0)
GPGPU-Sim PTX: 15200000 instructions simulated : ctaid=(3,6,0) tid=(14,6,0)
GPGPU-Sim uArch: Shader 14 finished CTA #3 (37848,0), 4 CTAs running
GPGPU-Sim uArch: core: 14, cta: 3 initialized @(37849,0)
GPGPU-Sim PTX: 15300000 instructions simulated : ctaid=(15,5,0) tid=(8,6,0)
GPGPU-Sim PTX: 15400000 instructions simulated : ctaid=(7,1,0) tid=(7,3,0)
GPGPU-Sim PTX: 15500000 instructions simulated : ctaid=(15,6,0) tid=(14,7,0)
GPGPU-Sim PTX: 15600000 instructions simulated : ctaid=(11,0,0) tid=(10,3,0)
GPGPU-Sim uArch: cycles simulated: 38500  inst.: 15212687 (ipc=395.1) sim_rate=1014179 (inst/sec) elapsed = 0:0:00:15 / Wed Nov 16 02:49:04 2022
GPGPU-Sim PTX: 15700000 instructions simulated : ctaid=(2,6,0) tid=(12,2,0)
GPGPU-Sim PTX: 15800000 instructions simulated : ctaid=(14,4,0) tid=(2,0,0)
GPGPU-Sim PTX: 15900000 instructions simulated : ctaid=(5,6,0) tid=(6,0,0)
GPGPU-Sim PTX: 16000000 instructions simulated : ctaid=(10,6,0) tid=(12,1,0)
GPGPU-Sim PTX: 16100000 instructions simulated : ctaid=(9,2,0) tid=(4,4,0)
GPGPU-Sim PTX: 16200000 instructions simulated : ctaid=(7,5,0) tid=(4,4,0)
GPGPU-Sim uArch: Shader 13 finished CTA #2 (39889,0), 4 CTAs running
GPGPU-Sim uArch: core: 13, cta: 2 initialized @(39890,0)
GPGPU-Sim PTX: 16300000 instructions simulated : ctaid=(1,6,0) tid=(4,2,0)
GPGPU-Sim PTX: 16400000 instructions simulated : ctaid=(0,7,0) tid=(13,4,0)
GPGPU-Sim PTX: 16500000 instructions simulated : ctaid=(11,4,0) tid=(1,4,0)
GPGPU-Sim PTX: 16600000 instructions simulated : ctaid=(7,3,0) tid=(7,5,0)
GPGPU-Sim PTX: 16700000 instructions simulated : ctaid=(8,5,0) tid=(14,0,0)
GPGPU-Sim PTX: 16800000 instructions simulated : ctaid=(6,1,0) tid=(8,6,0)
GPGPU-Sim uArch: cycles simulated: 41000  inst.: 16358597 (ipc=399.0) sim_rate=1022412 (inst/sec) elapsed = 0:0:00:16 / Wed Nov 16 02:49:05 2022
GPGPU-Sim PTX: 16900000 instructions simulated : ctaid=(4,7,0) tid=(9,0,0)
GPGPU-Sim PTX: 17000000 instructions simulated : ctaid=(9,6,0) tid=(4,7,0)
GPGPU-Sim PTX: 17100000 instructions simulated : ctaid=(7,3,0) tid=(0,5,0)
GPGPU-Sim PTX: 17200000 instructions simulated : ctaid=(9,1,0) tid=(7,0,0)
GPGPU-Sim uArch: Shader 5 finished CTA #1 (41897,0), 4 CTAs running
GPGPU-Sim uArch: core:  5, cta: 1 initialized @(41898,0)
GPGPU-Sim PTX: 17300000 instructions simulated : ctaid=(11,0,0) tid=(6,1,0)
GPGPU-Sim PTX: 17400000 instructions simulated : ctaid=(4,7,0) tid=(10,2,0)
GPGPU-Sim PTX: 17500000 instructions simulated : ctaid=(0,5,0) tid=(0,6,0)
GPGPU-Sim PTX: 17600000 instructions simulated : ctaid=(5,6,0) tid=(0,4,0)
GPGPU-Sim PTX: 17700000 instructions simulated : ctaid=(12,6,0) tid=(9,1,0)
GPGPU-Sim uArch: cycles simulated: 43000  inst.: 17313174 (ipc=402.6) sim_rate=1018422 (inst/sec) elapsed = 0:0:00:17 / Wed Nov 16 02:49:06 2022
GPGPU-Sim PTX: 17800000 instructions simulated : ctaid=(11,4,0) tid=(1,3,0)
GPGPU-Sim PTX: 17900000 instructions simulated : ctaid=(6,6,0) tid=(9,4,0)
GPGPU-Sim PTX: 18000000 instructions simulated : ctaid=(8,3,0) tid=(10,6,0)
GPGPU-Sim uArch: Shader 6 finished CTA #2 (43529,0), 4 CTAs running
GPGPU-Sim uArch: core:  6, cta: 2 initialized @(43530,0)
GPGPU-Sim uArch: Shader 6 finished CTA #4 (43567,0), 4 CTAs running
GPGPU-Sim uArch: core:  6, cta: 4 initialized @(43568,0)
GPGPU-Sim uArch: Shader 14 finished CTA #1 (43603,0), 4 CTAs running
GPGPU-Sim uArch: core: 14, cta: 1 initialized @(43604,0)
GPGPU-Sim PTX: 18100000 instructions simulated : ctaid=(0,6,0) tid=(10,7,0)
GPGPU-Sim uArch: Shader 14 finished CTA #0 (43711,0), 4 CTAs running
GPGPU-Sim uArch: core: 14, cta: 0 initialized @(43712,0)
GPGPU-Sim PTX: 18200000 instructions simulated : ctaid=(7,1,0) tid=(9,5,0)
GPGPU-Sim uArch: Shader 11 finished CTA #4 (43865,0), 4 CTAs running
GPGPU-Sim uArch: core: 11, cta: 4 initialized @(43866,0)
GPGPU-Sim uArch: Shader 6 finished CTA #1 (43866,0), 4 CTAs running
GPGPU-Sim uArch: core:  6, cta: 1 initialized @(43867,0)
GPGPU-Sim PTX: 18300000 instructions simulated : ctaid=(8,6,0) tid=(13,1,0)
GPGPU-Sim uArch: Shader 4 finished CTA #2 (44095,0), 4 CTAs running
GPGPU-Sim uArch: core:  4, cta: 2 initialized @(44096,0)
GPGPU-Sim PTX: 18400000 instructions simulated : ctaid=(9,6,0) tid=(0,5,0)
GPGPU-Sim uArch: Shader 4 finished CTA #3 (44265,0), 4 CTAs running
GPGPU-Sim uArch: core:  4, cta: 3 initialized @(44266,0)
GPGPU-Sim uArch: Shader 10 finished CTA #4 (44285,0), 4 CTAs running
GPGPU-Sim uArch: core: 10, cta: 4 initialized @(44286,0)
GPGPU-Sim uArch: Shader 12 finished CTA #3 (44385,0), 4 CTAs running
GPGPU-Sim uArch: core: 12, cta: 3 initialized @(44386,0)
GPGPU-Sim uArch: Shader 4 finished CTA #0 (44410,0), 4 CTAs running
GPGPU-Sim uArch: core:  4, cta: 0 initialized @(44411,0)
GPGPU-Sim uArch: Shader 10 finished CTA #3 (44437,0), 4 CTAs running
GPGPU-Sim uArch: core: 10, cta: 3 initialized @(44438,0)
GPGPU-Sim PTX: 18500000 instructions simulated : ctaid=(6,7,0) tid=(11,1,0)
GPGPU-Sim uArch: Shader 4 finished CTA #1 (44608,0), 4 CTAs running
GPGPU-Sim uArch: core:  4, cta: 1 initialized @(44609,0)
GPGPU-Sim PTX: 18600000 instructions simulated : ctaid=(1,8,0) tid=(3,5,0)
GPGPU-Sim uArch: Shader 9 finished CTA #4 (44702,0), 4 CTAs running
GPGPU-Sim uArch: core:  9, cta: 4 initialized @(44703,0)
GPGPU-Sim PTX: 18700000 instructions simulated : ctaid=(14,4,0) tid=(3,5,0)
GPGPU-Sim uArch: cycles simulated: 45000  inst.: 18265191 (ipc=405.9) sim_rate=1014732 (inst/sec) elapsed = 0:0:00:18 / Wed Nov 16 02:49:07 2022
GPGPU-Sim PTX: 18800000 instructions simulated : ctaid=(2,8,0) tid=(0,2,0)
GPGPU-Sim uArch: Shader 13 finished CTA #1 (45213,0), 4 CTAs running
GPGPU-Sim uArch: core: 13, cta: 1 initialized @(45214,0)
GPGPU-Sim uArch: Shader 7 finished CTA #3 (45217,0), 4 CTAs running
GPGPU-Sim uArch: core:  7, cta: 3 initialized @(45218,0)
GPGPU-Sim uArch: Shader 13 finished CTA #0 (45244,0), 4 CTAs running
GPGPU-Sim uArch: core: 13, cta: 0 initialized @(45245,0)
GPGPU-Sim PTX: 18900000 instructions simulated : ctaid=(2,8,0) tid=(10,4,0)
GPGPU-Sim uArch: Shader 7 finished CTA #4 (45382,0), 4 CTAs running
GPGPU-Sim uArch: core:  7, cta: 4 initialized @(45383,0)
GPGPU-Sim uArch: Shader 13 finished CTA #3 (45478,0), 4 CTAs running
GPGPU-Sim uArch: core: 13, cta: 3 initialized @(45479,0)
GPGPU-Sim PTX: 19000000 instructions simulated : ctaid=(0,8,0) tid=(10,6,0)
GPGPU-Sim uArch: Shader 5 finished CTA #2 (45548,0), 4 CTAs running
GPGPU-Sim uArch: core:  5, cta: 2 initialized @(45549,0)
GPGPU-Sim uArch: Shader 5 finished CTA #4 (45577,0), 4 CTAs running
GPGPU-Sim uArch: core:  5, cta: 4 initialized @(45578,0)
GPGPU-Sim uArch: Shader 6 finished CTA #3 (45730,0), 4 CTAs running
GPGPU-Sim uArch: core:  6, cta: 3 initialized @(45731,0)
GPGPU-Sim PTX: 19100000 instructions simulated : ctaid=(13,5,0) tid=(10,7,0)
GPGPU-Sim uArch: Shader 0 finished CTA #3 (45963,0), 4 CTAs running
GPGPU-Sim uArch: core:  0, cta: 3 initialized @(45964,0)
GPGPU-Sim uArch: Shader 0 finished CTA #0 (46013,0), 4 CTAs running
GPGPU-Sim uArch: core:  0, cta: 0 initialized @(46014,0)
GPGPU-Sim uArch: Shader 0 finished CTA #1 (46020,0), 4 CTAs running
GPGPU-Sim uArch: core:  0, cta: 1 initialized @(46021,0)
GPGPU-Sim PTX: 19200000 instructions simulated : ctaid=(10,7,0) tid=(11,1,0)
GPGPU-Sim uArch: Shader 8 finished CTA #3 (46101,0), 4 CTAs running
GPGPU-Sim uArch: core:  8, cta: 3 initialized @(46102,0)
GPGPU-Sim uArch: Shader 2 finished CTA #3 (46175,0), 4 CTAs running
GPGPU-Sim uArch: core:  2, cta: 3 initialized @(46176,0)
GPGPU-Sim uArch: Shader 2 finished CTA #0 (46200,0), 4 CTAs running
GPGPU-Sim uArch: core:  2, cta: 0 initialized @(46201,0)
GPGPU-Sim uArch: Shader 8 finished CTA #2 (46240,0), 4 CTAs running
GPGPU-Sim uArch: core:  8, cta: 2 initialized @(46241,0)
GPGPU-Sim uArch: Shader 2 finished CTA #1 (46250,0), 4 CTAs running
GPGPU-Sim uArch: core:  2, cta: 1 initialized @(46251,0)
GPGPU-Sim uArch: Shader 0 finished CTA #4 (46252,0), 4 CTAs running
GPGPU-Sim uArch: core:  0, cta: 4 initialized @(46253,0)
GPGPU-Sim uArch: Shader 2 finished CTA #4 (46262,0), 4 CTAs running
GPGPU-Sim uArch: core:  2, cta: 4 initialized @(46263,0)
GPGPU-Sim uArch: Shader 3 finished CTA #0 (46272,0), 4 CTAs running
GPGPU-Sim uArch: core:  3, cta: 0 initialized @(46273,0)
GPGPU-Sim uArch: Shader 1 finished CTA #0 (46332,0), 4 CTAs running
GPGPU-Sim uArch: core:  1, cta: 0 initialized @(46333,0)
GPGPU-Sim PTX: 19300000 instructions simulated : ctaid=(14,8,0) tid=(0,5,0)
GPGPU-Sim uArch: Shader 3 finished CTA #2 (46394,0), 4 CTAs running
GPGPU-Sim uArch: core:  3, cta: 2 initialized @(46395,0)
GPGPU-Sim uArch: Shader 3 finished CTA #1 (46512,0), 4 CTAs running
GPGPU-Sim uArch: core:  3, cta: 1 initialized @(46513,0)
GPGPU-Sim uArch: Shader 3 finished CTA #3 (46521,0), 4 CTAs running
GPGPU-Sim uArch: core:  3, cta: 3 initialized @(46522,0)
GPGPU-Sim uArch: Shader 1 finished CTA #1 (46609,0), 4 CTAs running
GPGPU-Sim uArch: core:  1, cta: 1 initialized @(46610,0)
[...]
traffic_breakdown_memtocore[LOCAL_ACC_W] = 356440 {8:44555,}
maxmrqlatency = 628 
maxdqlatency = 0 
maxmflatency = 1999 
averagemflatency = 262 
max_icnt2mem_latency = 1092 
max_icnt2sh_latency = 143651 
mrq_lat_table:13309 	1609 	1150 	2030 	4855 	3620 	3329 	2035 	275 	10 	0 	0 	0 	0 	0 	0 	0 	0 	0 	0 	0 	0 	0 	0 	0 	0 	0 	0 	0 	0 	0 	0 	
dq_lat_table:0 	0 	0 	0 	0 	0 	0 	0 	0 	0 	0 	0 	0 	0 	0 	0 	0 	0 	0 	0 	0 	0 	0 	0 	0 	0 	0 	0 	0 	0 	0 	0 	
mf_lat_table:0 	0 	0 	0 	0 	0 	0 	49333 	9100 	4738 	851 	0 	0 	0 	0 	0 	0 	0 	0 	0 	0 	0 	0 	0 	0 	0 	0 	0 	0 	0 	0 	0 	
icnt2mem_lat_table:0 	0 	0 	20523 	13125 	13869 	29598 	2169 	2268 	509 	4 	0 	0 	0 	0 	0 	0 	0 	0 	0 	0 	0 	0 	0 	
icnt2sh_lat_table:0 	0 	0 	5197 	4133 	1738 	207 	0 	0 	186 	498 	1378 	3108 	2630 	6134 	11006 	22828 	4979 	0 	0 	0 	0 	0 	0 	
mf_lat_pw_table:0 	0 	0 	0 	0 	0 	0 	236 	7 	17 	2 	0 	0 	0 	0 	0 	0 	0 	0 	0 	0 	0 	0 	0 	0 	0 	0 	0 	0 	0 	0 	0 	
maximum concurrent accesses to same row:
dram[0]:        54        56        36        34        26        22        26        25        28        37        19        18        19        16        20        25 
dram[1]:        52        54        34        32        20        22        38        36        24        16        13        18        16        16        16        30 
dram[2]:        62        62        54        56        30        30        29        36        29        26        20        20        27        18        24        22 
dram[3]:        58        60        54        56        28        30        36        22        28        22        16        20        17        18        17        20 
dram[4]:        62        64        56        52        30        32        36        24        24        25        20        20        22        24        25        20 
dram[5]:        58        60        56        48        30        34        25        36        22        28        18        24        15        37        24        23 
maximum service time to same row:
dram[0]:     15136      9570     23968     21659     16958     16509     28869     17126     22164     18736     36016     20035     22413     22347     29903     27072 
dram[1]:     14974     20176     21274     19714     15318     17932     29019     18316     18367     22294     35944     63262     37578     37201     19714     24511 
dram[2]:     24503     18761     16859     27562     16440     19694     18472     23375     20087     22046     20210     20045     23938     29799     19912     25810 
dram[3]:     26410     15455     17812     31015     25828     17369     20935     16771     25568     18543     40963     19588     35774     40647     20943     19724 
dram[4]:     23412     18004     16788     28606     16594     17269     22711     17913     18743     18366     20161     20088     23249     22234     45101     19997 
dram[5]:     24055     16517     20715     29462     16625     25242     17092     16939     18378     19081     18423     21250     23011     28634     19658     19591 
average row accesses per activate:
dram[0]:  5.387097  4.967742  6.769231  4.735294  3.447917  3.606742  4.253334  3.195312  3.568807  3.723404  3.682353  3.504504  3.602041  3.877778  4.741379  4.162162 
dram[1]:  5.152778  5.464286  4.741935  5.080000  3.471698  3.675000  3.465347  3.705263  3.237762  3.544554  3.438776  4.023256  3.552632  3.726316  3.571429  5.155172 
dram[2]:  6.125000  6.280000  4.750000  5.893617  3.526882  3.174757  3.626168  4.513514  3.960784  3.740000  3.366972  3.804598  4.202532  4.181818  4.108108  4.380952 
dram[3]:  6.142857  5.432836  6.945946  5.941176  3.808219  3.033058  4.128205  3.140625  3.944444  3.308943  3.776471  4.070588  4.246753  3.885417  5.018518  3.825581 
dram[4]:  6.172414  8.944445  7.128205  6.100000  3.944444  3.711111  4.058139  3.234234  3.547826  3.913043  3.419355  3.892473  3.851485  4.356164  5.220000  4.347222 
dram[5]:  5.419355  7.139535  6.511111  5.298245  3.869565  3.354167  3.235772  3.781609  3.660714  4.550000  4.187500  3.722892  4.153061  6.294117  5.210526  3.945946 
average row locality = 32222/7823 = 4.118880
number of total memory accesses made:
dram[0]:         0         0         0         0         0         0         0         0         0         0         0         0         0         0         0         0 
dram[1]:         0         0         0         0         0         0         0         0         0         0         0         0         0         0         0         0 
dram[2]:         0         0         0         0         0         0         0         0         0         0         0         0         0         0         0         0 
dram[3]:         0         0         0         0         0         0         0         0         0         0         0         0         0         0         0         0 
dram[4]:         0         0         0         0         0         0         0         0         0         0         0         0         0         0         0         0 
dram[5]:         0         0         0         0         0         0         0         0         0         0         0         0         0         0         0         0 
total accesses: 0
min_bank_accesses = 0!
min_chip_accesses = 0!
number of total read accesses:
dram[0]:       153       136       116       140       134       136       131       164       158       141       125       158       146       146       124       135 
dram[1]:       165       135       122       109       150       122       141       142       189       143       137       139       164       146       139       130 
dram[2]:       130       137       131       120       134       135       155       133       165       153       148       134       144       153       132       123 
dram[3]:       130       153       112       130       114       151       132       162       144       165       128       145       139       158       120       138 
dram[4]:       155       139       119       132       147       137       137       147       164       147       132       145       159       138       119       137 
dram[5]:       147       135       125       127       148       130       158       137       167       150       140       126       170       142       130       127 
total reads: 13477
bank skew: 189/109 = 1.73
chip skew: 2273/2221 = 1.02
number of total write accesses:
dram[0]:       181       172       148       182       197       185       188       245       231       209       188       231       207       203       151       173 
dram[1]:       206       171       172       145       218       172       209       210       274       215       200       207       241       208       186       169 
dram[2]:       164       177       173       157       194       192       233       201       239       221       219       197       188       215       172       153 
dram[3]:       171       211       145       173       164       216       190       240       211       242       193       201       188       215       151       191 
dram[4]:       203       183       159       173       208       197       212       212       244       213       186       217       230       180       142       176 
dram[5]:       189       172       168       175       208       192       240       192       243       214       195       183       237       179       167       165 
total reads: 18745
bank skew: 274/142 = 1.93
chip skew: 3203/3091 = 1.04
average mf latency per bank:
dram[0]:        550       467       606       508       537       517       665       487       501       535       590       492       535       545       581       524
dram[1]:        483       463       488       589       462       533       578       535       402       498       529       505       446       479       462       500
dram[2]:        529       514       534       605       545       518       532       627       489       509       515       539       549       483       532       523
dram[3]:        496       451       623       549       598       463       590       497       531       443       555       534       539       477       585       457
dram[4]:        446       446       600       541       498       537       610       586       493       538       607       530       477       615       625       521
dram[5]:        435       467       552       517       456       494       487       593       466       501       532       578       434       554       529       513
maximum mf latency per bank:
dram[0]:       1295      1076      1674      1172      1999      1319      1373      1228      1356      1063      1289      1102      1497      1213      1244      1127
dram[1]:        985      1005      1318      1232      1284      1323      1277      1039      1064      1028      1095      1028       988       904       947       966
dram[2]:       1315      1333      1762      1750      1536      1530      1661      1442      1351      1508      1234      1318      1445      1273      1189      1332
dram[3]:       1138      1370      1535      1699      1341      1483      1218      1450      1156      1089      1000      1198      1148      1183      1053      1123
dram[4]:       1393      1514      1843      1844      1677      1619      1533      1589      1552      1374      1286      1359      1410      1402      1490      1311
dram[5]:       1365      1329      1802      1570      1635      1549      1784      1704      1337      1271      1235      1223      1320      1238      1312      1264

Number of Memory Banks Accessed per Memory Operation per Warp (from 0):
0	0	0	0	0	0	0	0	0	0	0	0	0	0	0	0	0	0	0	0	0	0	0	0	0	0	0	0	0	0	0	0	0	0	0	0	0	0	0	0	0	0	0	0	0	0	0	0	0	0	0	0	0	0	0	0	0	0	0	0	0	0	0	0	0	0	0	0	0	0	0	0	0	0	0	0	0	0	0	0	0	0	0	0	0	0	0	0	0	0	0	0	0	0	0	0	
Average # of Memory Banks Accessed per Memory Operation per Warp=-nan

position of mrq chosen
0	0	0	0	0	0	0	0	0	0	0	0	0	0	0	0	

average position of mrq chosen = -nan
Memory Partition 0: 
Cache L2_bank_000:
MSHR contents

Cache L2_bank_001:
MSHR contents

In Dram Latency Queue (total = 0): 
DRAM[0]: 16 bks, busW=4 BL=8 CL=12, tRRD=2 tCCD=6, tRCD=12 tRAS=28 tRP=12 tRC=40
n_cmd=189620 n_nop=176769 n_act=1338 n_pre=1322 n_req=5334 n_rd=4486 n_write=5705 bw_util=0.1075
n_activity=52168 dram_eff=0.3907
bk0: 306a 180672i bk1: 272a 181618i bk2: 232a 181546i bk3: 280a 180444i bk4: 268a 178518i bk5: 272a 179075i bk6: 262a 177981i bk7: 328a 176172i bk8: 316a 178427i bk9: 282a 179175i bk10: 250a 179037i bk11: 316a 178347i bk12: 292a 178618i bk13: 292a 178640i bk14: 248a 180782i bk15: 270a 180015i 
dram_util_bins: 0 0 0 0 0 0 0 0 0 0
dram_eff_bins: 0 0 0 0 0 0 0 0 0 0
mrqq: max=16 avg=1.22416
Memory Partition 1: 
Cache L2_bank_002:
MSHR contents

Cache L2_bank_003:
MSHR contents

In Dram Latency Queue (total = 0): 
DRAM[1]: 16 bks, busW=4 BL=8 CL=12, tRRD=2 tCCD=6, tRCD=12 tRAS=28 tRP=12 tRC=40
n_cmd=189620 n_nop=176339 n_act=1408 n_pre=1392 n_req=5476 n_rd=4546 n_write=5935 bw_util=0.1105
n_activity=54553 dram_eff=0.3843
bk0: 330a 180151i bk1: 270a 181394i bk2: 244a 180654i bk3: 218a 181808i bk4: 300a 177325i bk5: 244a 179020i bk6: 282a 177269i bk7: 284a 177868i bk8: 378a 176769i bk9: 286a 178612i bk10: 274a 178833i bk11: 278a 178780i bk12: 328a 177069i bk13: 292a 178861i bk14: 278a 179492i bk15: 260a 180590i 
dram_util_bins: 0 0 0 0 0 0 0 0 0 0
dram_eff_bins: 0 0 0 0 0 0 0 0 0 0
mrqq: max=16 avg=1.17338
Memory Partition 2: 
Cache L2_bank_004:
MSHR contents

Cache L2_bank_005:
MSHR contents

In Dram Latency Queue (total = 0): 
DRAM[2]: 16 bks, busW=4 BL=8 CL=12, tRRD=2 tCCD=6, tRCD=12 tRAS=28 tRP=12 tRC=40
n_cmd=189620 n_nop=176900 n_act=1288 n_pre=1272 n_req=5322 n_rd=4454 n_write=5706 bw_util=0.1072
n_activity=53425 dram_eff=0.3803
bk0: 260a 181781i bk1: 274a 181889i bk2: 262a 181258i bk3: 240a 181504i bk4: 268a 179127i bk5: 270a 178780i bk6: 310a 176409i bk7: 266a 178264i bk8: 330a 178226i bk9: 306a 178535i bk10: 296a 178168i bk11: 268a 179464i bk12: 288a 179120i bk13: 306a 178114i bk14: 264a 179987i bk15: 246a 181099i 
dram_util_bins: 0 0 0 0 0 0 0 0 0 0
dram_eff_bins: 0 0 0 0 0 0 0 0 0 0
mrqq: max=16 avg=1.24248
Memory Partition 3: 
Cache L2_bank_006:
MSHR contents

Cache L2_bank_007:
MSHR contents

In Dram Latency Queue (total = 0): 
DRAM[3]: 16 bks, busW=4 BL=8 CL=12, tRRD=2 tCCD=6, tRCD=12 tRAS=28 tRP=12 tRC=40
n_cmd=189620 n_nop=176839 n_act=1300 n_pre=1284 n_req=5323 n_rd=4442 n_write=5755 bw_util=0.1076
n_activity=53200 dram_eff=0.3833
bk0: 260a 182296i bk1: 306a 180500i bk2: 224a 181944i bk3: 260a 180976i bk4: 228a 180512i bk5: 302a 178405i bk6: 264a 179018i bk7: 324a 177138i bk8: 288a 179291i bk9: 330a 177596i bk10: 256a 179247i bk11: 290a 178592i bk12: 278a 179392i bk13: 316a 178243i bk14: 240a 181130i bk15: 276a 179557i 
dram_util_bins: 0 0 0 0 0 0 0 0 0 0
dram_eff_bins: 0 0 0 0 0 0 0 0 0 0
mrqq: max=16 avg=1.18674
Memory Partition 4: 
Cache L2_bank_008:
MSHR contents

Cache L2_bank_009:
MSHR contents

In Dram Latency Queue (total = 0): 
DRAM[4]: 16 bks, busW=4 BL=8 CL=12, tRRD=2 tCCD=6, tRCD=12 tRAS=28 tRP=12 tRC=40
n_cmd=189620 n_nop=176836 n_act=1249 n_pre=1233 n_req=5389 n_rd=4508 n_write=5794 bw_util=0.1087
n_activity=53439 dram_eff=0.3856
bk0: 310a 180833i bk1: 278a 182050i bk2: 238a 181569i bk3: 264a 180990i bk4: 294a 178484i bk5: 274a 178724i bk6: 274a 177504i bk7: 294a 177213i bk8: 328a 177800i bk9: 294a 178600i bk10: 264a 179249i bk11: 290a 178405i bk12: 318a 177934i bk13: 276a 179068i bk14: 238a 181432i bk15: 274a 180292i 
dram_util_bins: 0 0 0 0 0 0 0 0 0 0
dram_eff_bins: 0 0 0 0 0 0 0 0 0 0
mrqq: max=16 avg=1.23397
Memory Partition 5: 
Cache L2_bank_010:
MSHR contents

Cache L2_bank_011:
MSHR contents

In Dram Latency Queue (total = 0): 
DRAM[5]: 16 bks, busW=4 BL=8 CL=12, tRRD=2 tCCD=6, tRCD=12 tRAS=28 tRP=12 tRC=40
n_cmd=189620 n_nop=176856 n_act=1240 n_pre=1224 n_req=5378 n_rd=4518 n_write=5782 bw_util=0.1086
n_activity=54065 dram_eff=0.381
bk0: 294a 180997i bk1: 270a 181992i bk2: 250a 181128i bk3: 254a 181420i bk4: 296a 178493i bk5: 260a 179185i bk6: 316a 176937i bk7: 274a 178827i bk8: 334a 178037i bk9: 300a 179265i bk10: 280a 179735i bk11: 252a 179776i bk12: 340a 177619i bk13: 284a 179658i bk14: 260a 180946i bk15: 254a 180640i 
dram_util_bins: 0 0 0 0 0 0 0 0 0 0
dram_eff_bins: 0 0 0 0 0 0 0 0 0 0
mrqq: max=16 avg=1.15205

========= L2 cache stats =========
L2_cache_bank[0]: Access = 6821, Miss = 1087, Miss_rate = 0.159, Pending_hits = 90, Reservation_fails = 1085
L2_cache_bank[1]: Access = 6978, Miss = 1156, Miss_rate = 0.166, Pending_hits = 89, Reservation_fails = 600
L2_cache_bank[2]: Access = 6808, Miss = 1207, Miss_rate = 0.177, Pending_hits = 96, Reservation_fails = 954
L2_cache_bank[3]: Access = 6773, Miss = 1066, Miss_rate = 0.157, Pending_hits = 76, Reservation_fails = 415
L2_cache_bank[4]: Access = 6627, Miss = 1139, Miss_rate = 0.172, Pending_hits = 100, Reservation_fails = 902
L2_cache_bank[5]: Access = 6786, Miss = 1088, Miss_rate = 0.160, Pending_hits = 81, Reservation_fails = 380
L2_cache_bank[6]: Access = 6844, Miss = 1019, Miss_rate = 0.149, Pending_hits = 78, Reservation_fails = 379
L2_cache_bank[7]: Access = 7016, Miss = 1202, Miss_rate = 0.171, Pending_hits = 73, Reservation_fails = 414
L2_cache_bank[8]: Access = 6986, Miss = 1132, Miss_rate = 0.162, Pending_hits = 91, Reservation_fails = 644
L2_cache_bank[9]: Access = 6715, Miss = 1122, Miss_rate = 0.167, Pending_hits = 87, Reservation_fails = 310
L2_cache_bank[10]: Access = 6939, Miss = 1185, Miss_rate = 0.171, Pending_hits = 74, Reservation_fails = 629
L2_cache_bank[11]: Access = 6772, Miss = 1074, Miss_rate = 0.159, Pending_hits = 80, Reservation_fails = 424
L2_total_cache_accesses = 82065
L2_total_cache_misses = 13477
L2_total_cache_miss_rate = 0.1642
L2_total_cache_pending_hits = 1015
L2_total_cache_reservation_fails = 7136
L2_total_cache_breakdown:
	L2_cache_stats_breakdown[GLOBAL_ACC_R][HIT] = 3692
	L2_cache_stats_breakdown[GLOBAL_ACC_R][HIT_RESERVED] = 12
	L2_cache_stats_breakdown[GLOBAL_ACC_R][MISS] = 153
	L2_cache_stats_breakdown[GLOBAL_ACC_R][RESERVATION_FAIL] = 366
	L2_cache_stats_breakdown[LOCAL_ACC_R][HIT] = 6811
	L2_cache_stats_breakdown[LOCAL_ACC_R][HIT_RESERVED] = 138
	L2_cache_stats_breakdown[LOCAL_ACC_R][MISS] = 439
	L2_cache_stats_breakdown[CONST_ACC_R][HIT] = 22
	L2_cache_stats_breakdown[CONST_ACC_R][HIT_RESERVED] = 6
	L2_cache_stats_breakdown[CONST_ACC_R][MISS] = 2
	L2_cache_stats_breakdown[CONST_ACC_R][RESERVATION_FAIL] = 574
	L2_cache_stats_breakdown[GLOBAL_ACC_W][HIT] = 5458
	L2_cache_stats_breakdown[GLOBAL_ACC_W][HIT_RESERVED] = 686
	L2_cache_stats_breakdown[GLOBAL_ACC_W][MISS] = 2048
	L2_cache_stats_breakdown[GLOBAL_ACC_W][RESERVATION_FAIL] = 7
	L2_cache_stats_breakdown[LOCAL_ACC_W][HIT] = 35041
	L2_cache_stats_breakdown[LOCAL_ACC_W][HIT_RESERVED] = 17
	L2_cache_stats_breakdown[LOCAL_ACC_W][MISS] = 9497
	L2_cache_stats_breakdown[LOCAL_ACC_W][RESERVATION_FAIL] = 178
	L2_cache_stats_breakdown[L1_WRBK_ACC][HIT] = 3789
	L2_cache_stats_breakdown[L1_WRBK_ACC][MISS] = 1285
	L2_cache_stats_breakdown[INST_ACC_R][HIT] = 12760
	L2_cache_stats_breakdown[INST_ACC_R][HIT_RESERVED] = 156
	L2_cache_stats_breakdown[INST_ACC_R][MISS] = 53
	L2_cache_stats_breakdown[INST_ACC_R][RESERVATION_FAIL] = 6011
L2_cache_data_port_util = 0.150
L2_cache_fill_port_util = 0.031

icnt_total_pkts_mem_to_simt=173907
icnt_total_pkts_simt_to_mem=293670
LD_mem_lat_dist  0 0 0 0 0 0 0 0 0 0 0 0 0 0 0 0 0 0 0 0 0 0 0 0 0 0 0
ST_mem_lat_dist  0 0 0 0 0 0 0 0 0 0 0 0 0 0 0 0 0 0 0 0 0 0 0 0 0 0 0
----------------------------Interconnect-DETAILS--------------------------------
Class 0:
Packet latency average = 17.3194
	minimum = 6
	maximum = 703
Network latency average = 13.5817
	minimum = 6
	maximum = 678
Slowest packet = 707
Flit latency average = 12.632
	minimum = 6
	maximum = 674
Slowest flit = 10925
Fragmentation average = 0.109641
	minimum = 0
	maximum = 551
Injected packet rate average = 0.0410086
	minimum = 0.0354955 (at node 8)
	maximum = 0.0457773 (at node 22)
Accepted packet rate average = 0.0410086
	minimum = 0.0332888 (at node 7)
	maximum = 0.0488403 (at node 22)
Injected flit rate average = 0.120553
	minimum = 0.0945758 (at node 19)
	maximum = 0.149709 (at node 11)
Accepted flit rate average= 0.120553
	minimum = 0.0684641 (at node 3)
	maximum = 0.172354 (at node 23)
Injected packet length average = 2.9397
Accepted packet length average = 2.9397
Total in-flight flits = 0 (0 measured)
====== Overall Traffic Statistics ======
====== Traffic class 0 ======
Packet latency average = 17.3194 (1 samples)
	minimum = 6 (1 samples)
	maximum = 703 (1 samples)
Network latency average = 13.5817 (1 samples)
	minimum = 6 (1 samples)
	maximum = 678 (1 samples)
Flit latency average = 12.632 (1 samples)
	minimum = 6 (1 samples)
	maximum = 674 (1 samples)
Fragmentation average = 0.109641 (1 samples)
	minimum = 0 (1 samples)
	maximum = 551 (1 samples)
Injected packet rate average = 0.0410086 (1 samples)
	minimum = 0.0354955 (1 samples)
	maximum = 0.0457773 (1 samples)
Accepted packet rate average = 0.0410086 (1 samples)
	minimum = 0.0332888 (1 samples)
	maximum = 0.0488403 (1 samples)
Injected flit rate average = 0.120553 (1 samples)
	minimum = 0.0945758 (1 samples)
	maximum = 0.149709 (1 samples)
Accepted flit rate average = 0.120553 (1 samples)
	minimum = 0.0684641 (1 samples)
	maximum = 0.172354 (1 samples)
Injected packet size average = 2.9397 (1 samples)
Accepted packet size average = 2.9397 (1 samples)
Hops average = 1 (1 samples)
----------------------------END-of-Interconnect-DETAILS-------------------------


gpgpu_simulation_time = 0 days, 0 hrs, 1 min, 9 sec (69 sec)
gpgpu_simulation_rate = 908443 (inst/sec)
gpgpu_simulation_rate = 2081 (cycle/sec)
GPGPU-Sim: synchronize waiting for inactive GPU simulation
GPGPU-Sim API: Stream Manager State
GPGPU-Sim: detected inactive GPU simulation thread

checksum=75ef40cb5b8e
Kernel Time: 68671.539062 
